<?xml version="1.0" encoding="UTF-8"?>

<!-- generated on 2025-01-09 11:48:06 by Eclipse SUMO netconvert Version 1.20.0
<configuration xmlns:xsi="http://www.w3.org/2001/XMLSchema-instance" xsi:noNamespaceSchemaLocation="http://sumo.dlr.de/xsd/netconvertConfiguration.xsd">

    <input>
        <opendrive-files value="Town10HD.xodr"/>
    </input>

    <output>
        <output-file value="Town10HD.net.xml"/>
    </output>

    <junctions>
        <no-turnarounds.except-deadend value="true"/>
    </junctions>

</configuration>
-->

<net version="1.20" junctionCornerDetail="5" rectangularLaneCut="true" limitTurnSpeed="5.50" xmlns:xsi="http://www.w3.org/2001/XMLSchema-instance" xsi:noNamespaceSchemaLocation="http://sumo.dlr.de/xsd/net_file.xsd">

    <location netOffset="109.34,135.96" convBoundary="0.00,0.00,214.07,199.44" origBoundary="0.000000,0.000000,0.000000,0.000000" projParameter="+proj=tmerc +lat_0=0 +lon_0=0 +k=1 +x_0=0 +y_0=0 +datum=WGS84 +units=m +geoidgrids=egm96_15.gtx +vunits=m +no_defs "/>

    <type id="driving" priority="1" speed="13.89" disallow="pedestrian tram rail_urban rail rail_electric rail_fast ship container cable_car subway aircraft wheelchair scooter drone" width="3.65"/>

    <edge id=":10.0_0" function="internal">
        <lane id=":10.0_0_0" index="0" disallow="pedestrian tram rail_urban rail rail_electric rail_fast ship container cable_car subway aircraft wheelchair scooter drone" speed="13.89" length="0.36" width="3.50" shape="219.32,158.43 219.32,158.84"/>
        <lane id=":10.0_0_1" index="1" disallow="pedestrian tram rail_urban rail rail_electric rail_fast ship container cable_car subway aircraft wheelchair scooter drone" speed="13.89" length="0.36" width="3.50" shape="215.82,158.48 215.82,158.80"/>
    </edge>
    <edge id=":10.0_2" function="internal">
        <lane id=":10.0_2_0" index="0" disallow="pedestrian tram rail_urban rail rail_electric rail_fast ship container cable_car subway aircraft wheelchair scooter drone" speed="13.89" length="0.19" width="3.50" shape="208.82,158.72 208.82,158.58"/>
        <lane id=":10.0_2_1" index="1" disallow="pedestrian tram rail_urban rail rail_electric rail_fast ship container cable_car subway aircraft wheelchair scooter drone" speed="13.89" length="0.19" width="3.50" shape="212.32,158.76 212.32,158.53"/>
    </edge>
    <edge id=":134_0" function="internal">
        <lane id=":134_0_0" index="0" disallow="pedestrian tram rail_urban rail rail_electric rail_fast ship container cable_car subway aircraft wheelchair scooter drone" speed="9.99" length="22.34" width="3.50" shape="167.40,69.64 161.33,70.51 156.97,73.09 154.32,77.40 153.37,83.41"/>
    </edge>
    <edge id=":134_1" function="internal">
        <lane id=":134_1_0" index="0" disallow="pedestrian tram rail_urban rail rail_electric rail_fast ship container cable_car subway aircraft wheelchair scooter drone" speed="13.89" length="30.91" width="3.50" shape="167.40,69.64 136.49,69.68"/>
    </edge>
    <edge id=":134_2" function="internal">
        <lane id=":134_2_0" index="0" disallow="pedestrian tram rail_urban rail rail_electric rail_fast ship container cable_car subway aircraft wheelchair scooter drone" speed="13.89" length="30.91" width="3.50" shape="136.48,66.18 167.39,66.14"/>
    </edge>
    <edge id=":134_3" function="internal">
        <lane id=":134_3_0" index="0" disallow="pedestrian tram rail_urban rail rail_electric rail_fast ship container cable_car subway aircraft wheelchair scooter drone" speed="10.93" length="6.02" width="3.50" shape="136.48,66.18 142.44,67.03"/>
    </edge>
    <edge id=":134_6" function="internal">
        <lane id=":134_6_0" index="0" disallow="pedestrian tram rail_urban rail rail_electric rail_fast ship container cable_car subway aircraft wheelchair scooter drone" speed="10.93" length="21.59" width="3.50" shape="142.44,67.03 143.96,67.25 149.26,70.48 152.40,75.87 153.37,83.41"/>
    </edge>
    <edge id=":134_4" function="internal">
        <lane id=":134_4_0" index="0" disallow="pedestrian tram rail_urban rail rail_electric rail_fast ship container cable_car subway aircraft wheelchair scooter drone" speed="9.79" length="21.91" width="3.50" shape="149.87,83.37 149.10,77.37 146.62,73.09 142.41,70.53 136.49,69.68"/>
    </edge>
    <edge id=":134_5" function="internal">
        <lane id=":134_5_0" index="0" disallow="pedestrian tram rail_urban rail rail_electric rail_fast ship container cable_car subway aircraft wheelchair scooter drone" speed="11.11" length="27.93" width="3.50" shape="149.87,83.37 151.05,75.84 154.37,70.46 159.81,67.23 167.39,66.14"/>
    </edge>
    <edge id=":16.15_0" function="internal">
        <lane id=":16.15_0_0" index="0" disallow="pedestrian tram rail_urban rail rail_electric rail_fast ship container cable_car subway aircraft wheelchair scooter drone" speed="13.89" length="0.10" width="3.50" shape="67.52,140.78 67.52,140.78"/>
        <lane id=":16.15_0_1" index="1" disallow="pedestrian tram rail_urban rail rail_electric rail_fast ship container cable_car subway aircraft wheelchair scooter drone" speed="13.89" length="0.10" width="3.50" shape="64.02,140.77 64.02,140.77"/>
    </edge>
    <edge id=":16.15_2" function="internal">
        <lane id=":16.15_2_0" index="0" disallow="pedestrian tram rail_urban rail rail_electric rail_fast ship container cable_car subway aircraft wheelchair scooter drone" speed="13.89" length="0.10" width="3.50" shape="57.02,140.75 57.02,140.75"/>
        <lane id=":16.15_2_1" index="1" disallow="pedestrian tram rail_urban rail rail_electric rail_fast ship container cable_car subway aircraft wheelchair scooter drone" speed="13.89" length="0.10" width="3.50" shape="60.52,140.76 60.52,140.76"/>
    </edge>
    <edge id=":17.10_0" function="internal">
        <lane id=":17.10_0_0" index="0" disallow="pedestrian tram rail_urban rail rail_electric rail_fast ship container cable_car subway aircraft wheelchair scooter drone" speed="13.89" length="0.29" width="3.50" shape="116.90,203.86 116.62,203.86"/>
        <lane id=":17.10_0_1" index="1" disallow="pedestrian tram rail_urban rail rail_electric rail_fast ship container cable_car subway aircraft wheelchair scooter drone" speed="13.89" length="0.29" width="3.50" shape="116.90,200.36 116.61,200.36"/>
    </edge>
    <edge id=":17.10_2" function="internal">
        <lane id=":17.10_2_0" index="0" disallow="pedestrian tram rail_urban rail rail_electric rail_fast ship container cable_car subway aircraft wheelchair scooter drone" speed="13.89" length="0.31" width="3.50" shape="116.59,193.36 116.91,193.36"/>
        <lane id=":17.10_2_1" index="1" disallow="pedestrian tram rail_urban rail rail_electric rail_fast ship container cable_car subway aircraft wheelchair scooter drone" speed="13.89" length="0.31" width="3.50" shape="116.60,196.86 116.91,196.86"/>
    </edge>
    <edge id=":189_0" function="internal">
        <lane id=":189_0_0" index="0" disallow="pedestrian tram rail_urban rail rail_electric rail_fast ship container cable_car subway aircraft wheelchair scooter drone" speed="9.99" length="22.51" width="3.50" shape="80.66,122.86 74.93,123.80 70.84,126.58 68.37,131.20 67.53,137.67"/>
    </edge>
    <edge id=":189_1" function="internal">
        <lane id=":189_1_0" index="0" disallow="pedestrian tram rail_urban rail rail_electric rail_fast ship container cable_car subway aircraft wheelchair scooter drone" speed="13.89" length="38.11" width="3.50" shape="80.66,122.86 42.55,122.97">
            <param key="signalID" value="952"/>
        </lane>
        <lane id=":189_1_1" index="1" disallow="pedestrian tram rail_urban rail rail_electric rail_fast ship container cable_car subway aircraft wheelchair scooter drone" speed="13.89" length="38.11" width="3.50" shape="80.65,119.36 42.54,119.47">
            <param key="signalID" value="952"/>
        </lane>
    </edge>
    <edge id=":189_3" function="internal">
        <lane id=":189_3_0" index="0" disallow="pedestrian tram rail_urban rail rail_electric rail_fast ship container cable_car subway aircraft wheelchair scooter drone" speed="12.67" length="14.84" width="3.50" shape="80.65,119.36 71.88,117.76 67.20,114.13">
            <param key="signalID" value="949"/>
        </lane>
    </edge>
    <edge id=":189_18" function="internal">
        <lane id=":189_18_0" index="0" disallow="pedestrian tram rail_urban rail rail_electric rail_fast ship container cable_car subway aircraft wheelchair scooter drone" speed="12.67" length="22.38" width="3.50" shape="67.20,114.13 65.62,112.90 61.88,104.78 60.66,93.41">
            <param key="signalID" value="949"/>
        </lane>
    </edge>
    <edge id=":189_4" function="internal">
        <lane id=":189_4_0" index="0" disallow="pedestrian tram rail_urban rail rail_electric rail_fast ship container cable_car subway aircraft wheelchair scooter drone" speed="9.87" length="22.13" width="3.50" shape="67.66,93.43 68.45,99.76 70.88,104.27 74.93,106.97 80.62,107.86"/>
    </edge>
    <edge id=":189_5" function="internal">
        <lane id=":189_5_0" index="0" disallow="pedestrian tram rail_urban rail rail_electric rail_fast ship container cable_car subway aircraft wheelchair scooter drone" speed="13.89" length="44.24" width="3.50" shape="67.66,93.43 67.53,137.67">
            <param key="signalID" value="950"/>
        </lane>
        <lane id=":189_5_1" index="1" disallow="pedestrian tram rail_urban rail rail_electric rail_fast ship container cable_car subway aircraft wheelchair scooter drone" speed="13.89" length="44.24" width="3.50" shape="64.16,93.42 64.03,137.66">
            <param key="signalID" value="950"/>
        </lane>
    </edge>
    <edge id=":189_7" function="internal">
        <lane id=":189_7_0" index="0" disallow="pedestrian tram rail_urban rail rail_electric rail_fast ship container cable_car subway aircraft wheelchair scooter drone" speed="12.93" length="7.29" width="3.50" shape="64.16,93.42 63.28,100.65">
            <param key="signalID" value="950"/>
        </lane>
    </edge>
    <edge id=":189_19" function="internal">
        <lane id=":189_19_0" index="0" disallow="pedestrian tram rail_urban rail rail_electric rail_fast ship container cable_car subway aircraft wheelchair scooter drone" speed="12.93" length="31.17" width="3.50" shape="63.28,100.65 62.78,104.79 58.72,112.92 51.97,117.81 42.54,119.47">
            <param key="signalID" value="950"/>
        </lane>
    </edge>
    <edge id=":189_8" function="internal">
        <lane id=":189_8_0" index="0" disallow="pedestrian tram rail_urban rail rail_electric rail_fast ship container cable_car subway aircraft wheelchair scooter drone" speed="10.20" length="23.53" width="3.50" shape="42.51,107.97 48.90,107.04 53.48,104.30 56.23,99.76 57.16,93.40"/>
    </edge>
    <edge id=":189_9" function="internal">
        <lane id=":189_9_0" index="0" disallow="pedestrian tram rail_urban rail rail_electric rail_fast ship container cable_car subway aircraft wheelchair scooter drone" speed="13.89" length="38.11" width="3.50" shape="42.51,107.97 80.62,107.86">
            <param key="signalID" value="951 950 949"/>
        </lane>
        <lane id=":189_9_1" index="1" disallow="pedestrian tram rail_urban rail rail_electric rail_fast ship container cable_car subway aircraft wheelchair scooter drone" speed="13.89" length="38.11" width="3.50" shape="42.52,111.47 80.63,111.36">
            <param key="signalID" value="951 950 949"/>
        </lane>
    </edge>
    <edge id=":189_11" function="internal">
        <lane id=":189_11_0" index="0" disallow="pedestrian tram rail_urban rail rail_electric rail_fast ship container cable_car subway aircraft wheelchair scooter drone" speed="13.34" length="17.92" width="3.50" shape="42.52,111.47 53.49,113.08 59.28,116.71">
            <param key="signalID" value="952 949 949"/>
        </lane>
        <lane id=":189_11_1" index="1" disallow="pedestrian tram rail_urban rail rail_electric rail_fast ship container cable_car subway aircraft wheelchair scooter drone" speed="12.89" length="15.73" width="3.50" shape="42.52,111.47 51.96,113.08 56.93,116.70">
            <param key="signalID" value="952 949 949"/>
        </lane>
    </edge>
    <edge id=":189_20" function="internal">
        <lane id=":189_20_0" index="0" disallow="pedestrian tram rail_urban rail rail_electric rail_fast ship container cable_car subway aircraft wheelchair scooter drone" speed="13.34" length="23.43" width="3.50" shape="59.28,116.71 61.32,117.98 66.00,126.18 67.53,137.67">
            <param key="signalID" value="952 949 949"/>
        </lane>
    </edge>
    <edge id=":189_21" function="internal">
        <lane id=":189_21_0" index="0" disallow="pedestrian tram rail_urban rail rail_electric rail_fast ship container cable_car subway aircraft wheelchair scooter drone" speed="12.89" length="22.86" width="3.50" shape="56.93,116.70 58.69,117.98 62.72,126.18 64.03,137.66">
            <param key="signalID" value="952 949 949"/>
        </lane>
    </edge>
    <edge id=":189_13" function="internal">
        <lane id=":189_13_0" index="0" disallow="pedestrian tram rail_urban rail rail_electric rail_fast ship container cable_car subway aircraft wheelchair scooter drone" speed="10.16" length="23.54" width="3.50" shape="57.03,137.64 56.14,131.20 53.43,126.61 48.90,123.87 42.55,122.97"/>
    </edge>
    <edge id=":189_14" function="internal">
        <lane id=":189_14_0" index="0" disallow="pedestrian tram rail_urban rail rail_electric rail_fast ship container cable_car subway aircraft wheelchair scooter drone" speed="13.89" length="44.24" width="3.50" shape="57.03,137.64 57.16,93.40">
            <param key="signalID" value="951"/>
        </lane>
        <lane id=":189_14_1" index="1" disallow="pedestrian tram rail_urban rail rail_electric rail_fast ship container cable_car subway aircraft wheelchair scooter drone" speed="13.89" length="44.24" width="3.50" shape="60.53,137.65 60.66,93.41">
            <param key="signalID" value="951"/>
        </lane>
    </edge>
    <edge id=":189_16" function="internal">
        <lane id=":189_16_0" index="0" disallow="pedestrian tram rail_urban rail rail_electric rail_fast ship container cable_car subway aircraft wheelchair scooter drone" speed="13.25" length="8.93" width="3.50" shape="60.53,137.65 61.41,128.76">
            <param key="signalID" value="952"/>
        </lane>
        <lane id=":189_16_1" index="1" disallow="pedestrian tram rail_urban rail rail_electric rail_fast ship container cable_car subway aircraft wheelchair scooter drone" speed="12.77" length="7.90" width="3.50" shape="60.53,137.65 61.41,129.80">
            <param key="signalID" value="952"/>
        </lane>
    </edge>
    <edge id=":189_22" function="internal">
        <lane id=":189_22_0" index="0" disallow="pedestrian tram rail_urban rail rail_electric rail_fast ship container cable_car subway aircraft wheelchair scooter drone" speed="13.25" length="31.54" width="3.50" shape="61.41,128.76 61.82,124.64 65.60,115.33 71.86,109.74 80.62,107.86">
            <param key="signalID" value="952"/>
        </lane>
    </edge>
    <edge id=":189_23" function="internal">
        <lane id=":189_23_0" index="0" disallow="pedestrian tram rail_urban rail rail_electric rail_fast ship container cable_car subway aircraft wheelchair scooter drone" speed="12.77" length="29.59" width="3.50" shape="61.41,129.80 61.82,126.17 65.59,117.96 71.86,113.02 80.63,111.36">
            <param key="signalID" value="952"/>
        </lane>
    </edge>
    <edge id=":19.18_0" function="internal">
        <lane id=":19.18_0_0" index="0" disallow="pedestrian tram rail_urban rail rail_electric rail_fast ship container cable_car subway aircraft wheelchair scooter drone" speed="13.89" length="0.10" width="3.50" shape="31.31,123.00 31.31,123.00"/>
        <lane id=":19.18_0_1" index="1" disallow="pedestrian tram rail_urban rail rail_electric rail_fast ship container cable_car subway aircraft wheelchair scooter drone" speed="13.89" length="0.10" width="3.50" shape="31.30,119.50 31.30,119.50"/>
    </edge>
    <edge id=":19.18_2" function="internal">
        <lane id=":19.18_2_0" index="0" disallow="pedestrian tram rail_urban rail rail_electric rail_fast ship container cable_car subway aircraft wheelchair scooter drone" speed="13.89" length="0.10" width="3.50" shape="31.27,108.00 31.27,108.00"/>
        <lane id=":19.18_2_1" index="1" disallow="pedestrian tram rail_urban rail rail_electric rail_fast ship container cable_car subway aircraft wheelchair scooter drone" speed="13.89" length="0.10" width="3.50" shape="31.28,111.50 31.28,111.50"/>
    </edge>
    <edge id=":22.16_0" function="internal">
        <lane id=":22.16_0_0" index="0" disallow="pedestrian tram rail_urban rail rail_electric rail_fast ship container cable_car subway aircraft wheelchair scooter drone" speed="13.89" length="0.10" width="3.50" shape="57.00,153.20 57.00,153.20"/>
        <lane id=":22.16_0_1" index="1" disallow="pedestrian tram rail_urban rail rail_electric rail_fast ship container cable_car subway aircraft wheelchair scooter drone" speed="13.89" length="0.10" width="3.50" shape="60.50,153.18 60.50,153.17"/>
    </edge>
    <edge id=":22.16_2" function="internal">
        <lane id=":22.16_2_0" index="0" disallow="pedestrian tram rail_urban rail rail_electric rail_fast ship container cable_car subway aircraft wheelchair scooter drone" speed="13.89" length="0.10" width="3.50" shape="67.50,153.12 67.50,153.12"/>
        <lane id=":22.16_2_1" index="1" disallow="pedestrian tram rail_urban rail rail_electric rail_fast ship container cable_car subway aircraft wheelchair scooter drone" speed="13.89" length="0.10" width="3.50" shape="64.00,153.15 64.00,153.15"/>
    </edge>
    <edge id=":23_0" function="internal">
        <lane id=":23_0_0" index="0" disallow="pedestrian tram rail_urban rail rail_electric rail_fast ship container cable_car subway aircraft wheelchair scooter drone" speed="13.89" length="39.32" width="3.50" shape="81.62,204.25 42.30,204.66">
            <param key="signalID" value="943"/>
        </lane>
        <lane id=":23_0_1" index="1" disallow="pedestrian tram rail_urban rail rail_electric rail_fast ship container cable_car subway aircraft wheelchair scooter drone" speed="13.89" length="39.32" width="3.50" shape="81.58,200.75 42.26,201.16">
            <param key="signalID" value="943"/>
        </lane>
    </edge>
    <edge id=":23_2" function="internal">
        <lane id=":23_2_0" index="0" disallow="pedestrian tram rail_urban rail rail_electric rail_fast ship container cable_car subway aircraft wheelchair scooter drone" speed="12.16" length="5.82" width="3.50" shape="81.58,200.75 75.81,199.95">
            <param key="signalID" value="944 944 944"/>
        </lane>
    </edge>
    <edge id=":23_10" function="internal">
        <lane id=":23_10_0" index="0" disallow="pedestrian tram rail_urban rail rail_electric rail_fast ship container cable_car subway aircraft wheelchair scooter drone" speed="12.16" length="28.31" width="3.50" shape="75.81,199.95 72.51,199.49 66.00,195.50 62.07,188.77 60.70,179.32">
            <param key="signalID" value="944 944 944"/>
        </lane>
    </edge>
    <edge id=":23_3" function="internal">
        <lane id=":23_3_0" index="0" disallow="pedestrian tram rail_urban rail rail_electric rail_fast ship container cable_car subway aircraft wheelchair scooter drone" speed="10.03" length="22.83" width="3.50" shape="67.70,179.26 68.61,185.65 71.21,190.20 75.51,192.90 81.51,193.75"/>
        <lane id=":23_3_1" index="1" disallow="pedestrian tram rail_urban rail rail_electric rail_fast ship container cable_car subway aircraft wheelchair scooter drone" speed="10.62" length="25.75" width="3.50" shape="67.70,179.26 68.62,187.19 71.23,192.82 75.54,196.18 81.54,197.25"/>
    </edge>
    <edge id=":23_5" function="internal">
        <lane id=":23_5_0" index="0" disallow="pedestrian tram rail_urban rail rail_electric rail_fast ship container cable_car subway aircraft wheelchair scooter drone" speed="12.86" length="38.15" width="3.50" shape="64.20,179.29 62.90,190.30 58.82,198.20 51.95,202.98 42.30,204.66">
            <param key="signalID" value="944 944 945"/>
        </lane>
        <lane id=":23_5_1" index="1" disallow="pedestrian tram rail_urban rail rail_electric rail_fast ship container cable_car subway aircraft wheelchair scooter drone" speed="12.39" length="35.30" width="3.50" shape="64.20,179.29 62.89,188.77 58.80,195.58 51.92,199.70 42.26,201.16">
            <param key="signalID" value="944 944 945"/>
        </lane>
    </edge>
    <edge id=":23_7" function="internal">
        <lane id=":23_7_0" index="0" disallow="pedestrian tram rail_urban rail rail_electric rail_fast ship container cable_car subway aircraft wheelchair scooter drone" speed="10.30" length="24.03" width="3.50" shape="42.19,194.16 48.80,193.17 53.50,190.38 56.31,185.77 57.20,179.34"/>
    </edge>
    <edge id=":23_8" function="internal">
        <lane id=":23_8_0" index="0" disallow="pedestrian tram rail_urban rail rail_electric rail_fast ship container cable_car subway aircraft wheelchair scooter drone" speed="13.89" length="39.32" width="3.50" shape="42.19,194.16 81.51,193.75">
            <param key="signalID" value="943 945"/>
        </lane>
        <lane id=":23_8_1" index="1" disallow="pedestrian tram rail_urban rail rail_electric rail_fast ship container cable_car subway aircraft wheelchair scooter drone" speed="13.89" length="39.32" width="3.50" shape="42.23,197.66 81.54,197.25">
            <param key="signalID" value="943 945"/>
        </lane>
    </edge>
    <edge id=":3.0_0" function="internal">
        <lane id=":3.0_0_0" index="0" disallow="pedestrian tram rail_urban rail rail_electric rail_fast ship container cable_car subway aircraft wheelchair scooter drone" speed="13.89" length="0.10" width="3.50" shape="208.77,145.37 208.77,145.37"/>
        <lane id=":3.0_0_1" index="1" disallow="pedestrian tram rail_urban rail rail_electric rail_fast ship container cable_car subway aircraft wheelchair scooter drone" speed="13.89" length="0.10" width="3.50" shape="212.27,145.35 212.27,145.34"/>
    </edge>
    <edge id=":3.0_2" function="internal">
        <lane id=":3.0_2_0" index="0" disallow="pedestrian tram rail_urban rail rail_electric rail_fast ship container cable_car subway aircraft wheelchair scooter drone" speed="13.89" length="0.10" width="3.50" shape="219.27,145.30 219.27,145.30"/>
        <lane id=":3.0_2_1" index="1" disallow="pedestrian tram rail_urban rail rail_electric rail_fast ship container cable_car subway aircraft wheelchair scooter drone" speed="13.89" length="0.10" width="3.50" shape="215.77,145.32 215.77,145.32"/>
    </edge>
    <edge id=":468_0" function="internal">
        <lane id=":468_0_0" index="0" disallow="pedestrian tram rail_urban rail rail_electric rail_fast ship container cable_car subway aircraft wheelchair scooter drone" speed="10.02" length="22.61" width="3.50" shape="80.83,5.93 75.17,6.90 71.12,9.74 68.69,14.45 67.86,21.02"/>
        <lane id=":468_0_1" index="1" disallow="pedestrian tram rail_urban rail rail_electric rail_fast ship container cable_car subway aircraft wheelchair scooter drone" speed="10.60" length="25.40" width="3.50" shape="80.83,5.93 73.64,6.91 68.50,9.75 65.41,14.45 64.36,21.01"/>
    </edge>
    <edge id=":468_2" function="internal">
        <lane id=":468_2_0" index="0" disallow="pedestrian tram rail_urban rail rail_electric rail_fast ship container cable_car subway aircraft wheelchair scooter drone" speed="13.89" length="42.34" width="3.50" shape="80.83,5.93 71.43,5.78 59.79,5.58 48.21,5.83 38.99,7.03">
            <param key="signalID" value="953 954"/>
        </lane>
        <lane id=":468_2_1" index="1" disallow="pedestrian tram rail_urban rail rail_electric rail_fast ship container cable_car subway aircraft wheelchair scooter drone" speed="13.89" length="42.34" width="3.50" shape="80.81,2.43 71.28,2.30 59.35,2.13 47.48,2.42 38.13,3.64">
            <param key="signalID" value="953 954"/>
        </lane>
    </edge>
    <edge id=":468_4" function="internal">
        <lane id=":468_4_0" index="0" disallow="pedestrian tram rail_urban rail rail_electric rail_fast ship container cable_car subway aircraft wheelchair scooter drone" speed="13.89" length="44.02" width="3.50" shape="36.41,-3.15 46.02,-4.40 58.47,-4.76 70.98,-4.67 80.76,-4.57">
            <param key="signalID" value="955"/>
        </lane>
        <lane id=":468_4_1" index="1" disallow="pedestrian tram rail_urban rail rail_electric rail_fast ship container cable_car subway aircraft wheelchair scooter drone" speed="13.89" length="44.02" width="3.50" shape="37.27,0.24 46.75,-0.99 58.91,-1.31 71.13,-1.19 80.78,-1.07">
            <param key="signalID" value="956"/>
        </lane>
    </edge>
    <edge id=":468_6" function="internal">
        <lane id=":468_6_0" index="0" disallow="pedestrian tram rail_urban rail rail_electric rail_fast ship container cable_car subway aircraft wheelchair scooter drone" speed="10.20" length="28.16" width="3.50" shape="57.36,20.99 56.23,13.13 52.79,8.19 47.05,6.15 38.99,7.03">
            <param key="signalID" value="954"/>
        </lane>
        <lane id=":468_6_1" index="1" disallow="pedestrian tram rail_urban rail rail_electric rail_fast ship container cable_car subway aircraft wheelchair scooter drone" speed="11.31" length="34.92" width="3.50" shape="60.86,21.00 59.47,11.24 55.21,5.09 48.10,2.55 38.13,3.64">
            <param key="signalID" value="954"/>
        </lane>
    </edge>
    <edge id=":532_0" function="internal">
        <lane id=":532_0_0" index="0" disallow="pedestrian tram rail_urban rail rail_electric rail_fast ship container cable_car subway aircraft wheelchair scooter drone" speed="11.00" length="27.59" width="3.50" shape="208.74,140.46 207.68,132.61 204.60,127.00 199.51,123.65 192.42,122.55"/>
    </edge>
    <edge id=":532_1" function="internal">
        <lane id=":532_1_0" index="0" disallow="pedestrian tram rail_urban rail rail_electric rail_fast ship container cable_car subway aircraft wheelchair scooter drone" speed="13.89" length="46.64" width="3.50" shape="208.74,140.46 208.42,93.82">
            <param key="signalID" value="957"/>
        </lane>
        <lane id=":532_1_1" index="1" disallow="pedestrian tram rail_urban rail rail_electric rail_fast ship container cable_car subway aircraft wheelchair scooter drone" speed="13.89" length="46.64" width="3.50" shape="212.24,140.44 211.92,93.80">
            <param key="signalID" value="957"/>
        </lane>
    </edge>
    <edge id=":532_3" function="internal">
        <lane id=":532_3_0" index="0" disallow="pedestrian tram rail_urban rail rail_electric rail_fast ship container cable_car subway aircraft wheelchair scooter drone" speed="13.89" length="46.64" width="3.50" shape="218.92,93.75 219.24,140.39">
            <param key="signalID" value="959 958 958"/>
        </lane>
        <lane id=":532_3_1" index="1" disallow="pedestrian tram rail_urban rail rail_electric rail_fast ship container cable_car subway aircraft wheelchair scooter drone" speed="13.89" length="46.64" width="3.50" shape="215.42,93.77 215.74,140.41">
            <param key="signalID" value="959 958 958"/>
        </lane>
    </edge>
    <edge id=":532_5" function="internal">
        <lane id=":532_5_0" index="0" disallow="pedestrian tram rail_urban rail rail_electric rail_fast ship container cable_car subway aircraft wheelchair scooter drone" speed="13.43" length="7.46" width="3.50" shape="215.42,93.77 214.62,101.19">
            <param key="signalID" value="958 957 958"/>
        </lane>
        <lane id=":532_5_1" index="1" disallow="pedestrian tram rail_urban rail rail_electric rail_fast ship container cable_car subway aircraft wheelchair scooter drone" speed="12.97" length="6.58" width="3.50" shape="215.42,93.77 214.61,100.30">
            <param key="signalID" value="958 957 958"/>
        </lane>
    </edge>
    <edge id=":532_11" function="internal">
        <lane id=":532_11_0" index="0" disallow="pedestrian tram rail_urban rail rail_electric rail_fast ship container cable_car subway aircraft wheelchair scooter drone" speed="13.43" length="34.45" width="3.50" shape="214.62,101.19 214.06,106.34 209.77,115.32 202.56,120.73 192.42,122.55">
            <param key="signalID" value="958 957 958"/>
        </lane>
    </edge>
    <edge id=":532_12" function="internal">
        <lane id=":532_12_0" index="0" disallow="pedestrian tram rail_urban rail rail_electric rail_fast ship container cable_car subway aircraft wheelchair scooter drone" speed="12.97" length="32.41" width="3.50" shape="214.61,100.30 214.05,104.81 209.76,112.70 202.54,117.44 192.41,119.05">
            <param key="signalID" value="958 957 958"/>
        </lane>
    </edge>
    <edge id=":532_7" function="internal">
        <lane id=":532_7_0" index="0" disallow="pedestrian tram rail_urban rail rail_electric rail_fast ship container cable_car subway aircraft wheelchair scooter drone" speed="10.27" length="24.05" width="3.50" shape="192.38,107.55 199.43,106.67 204.46,104.09 207.46,99.81 208.42,93.82"/>
        <lane id=":532_7_1" index="1" disallow="pedestrian tram rail_urban rail rail_electric rail_fast ship container cable_car subway aircraft wheelchair scooter drone" speed="10.86" length="27.02" width="3.50" shape="192.38,107.55 200.96,106.67 207.08,104.08 210.74,99.79 211.92,93.80"/>
    </edge>
    <edge id=":532_9" function="internal">
        <lane id=":532_9_0" index="0" disallow="pedestrian tram rail_urban rail rail_electric rail_fast ship container cable_car subway aircraft wheelchair scooter drone" speed="13.89" length="45.28" width="3.50" shape="192.39,111.05 204.06,112.85 212.43,118.35 217.49,127.52 219.24,140.39">
            <param key="signalID" value="959 959"/>
        </lane>