<?xml version="1.0" encoding="UTF-8"?>

<!-- generated on 2025-01-09 09:15:12 by Eclipse SUMO netconvert Version 1.20.0
<configuration xmlns:xsi="http://www.w3.org/2001/XMLSchema-instance" xsi:noNamespaceSchemaLocation="http://sumo.dlr.de/xsd/netconvertConfiguration.xsd">

    <input>
        <opendrive-files value="Town07.xodr"/>
    </input>

    <output>
        <output-file value="Town07.net.xml"/>
    </output>

    <junctions>
        <no-turnarounds.except-deadend value="true"/>
    </junctions>

</configuration>
-->

<net version="1.20" junctionCornerDetail="5" rectangularLaneCut="true" limitTurnSpeed="5.50" xmlns:xsi="http://www.w3.org/2001/XMLSchema-instance" xsi:noNamespaceSchemaLocation="http://sumo.dlr.de/xsd/net_file.xsd">

    <location netOffset="203.03,122.66" convBoundary="0.00,0.00,287.14,370.03" origBoundary="0.000000,0.000000,0.000000,0.000000" projParameter="+proj=tmerc +lat_0=0 +lon_0=0 +k=1 +x_0=0 +y_0=0 +datum=WGS84 +units=m +geoidgrids=egm96_15.gtx +vunits=m +no_defs "/>

    <type id="driving" priority="1" speed="13.89" disallow="pedestrian tram rail_urban rail rail_electric rail_fast ship container cable_car subway aircraft wheelchair scooter drone" width="3.65"/>

    <edge id=":123_0" function="internal">
        <lane id=":123_0_0" index="0" disallow="pedestrian tram rail_urban rail rail_electric rail_fast ship container cable_car subway aircraft wheelchair scooter drone" speed="6.46" length="8.91" width="3.10" shape="50.24,79.34,0.00 49.86,76.94,0.00 48.80,75.24,0.00 47.06,74.22,0.00 44.63,73.90"/>
    </edge>
    <edge id=":123_1" function="internal">
        <lane id=":123_1_0" index="0" disallow="pedestrian tram rail_urban rail rail_electric rail_fast ship container cable_car subway aircraft wheelchair scooter drone" speed="7.91" length="13.90" width="3.10" shape="50.24,79.34,0.00 50.73,75.58,0.00 52.33,72.88,0.00 55.01,71.25,0.00 58.80,70.68"/>
    </edge>
    <edge id=":123_2" function="internal">
        <lane id=":123_2_0" index="0" disallow="pedestrian tram rail_urban rail rail_electric rail_fast ship container cable_car subway aircraft wheelchair scooter drone" speed="6.44" length="8.89" width="3.10" shape="58.83,73.78 56.40,74.14,0.00 54.68,75.18,0.00 53.65,76.90,0.00 53.34,79.31,0.00"/>
    </edge>
    <edge id=":123_3" function="internal">
        <lane id=":123_3_0" index="0" disallow="pedestrian tram rail_urban rail rail_electric rail_fast ship container cable_car subway aircraft wheelchair scooter drone" speed="13.89" length="14.20" width="3.10" shape="58.83,73.78 44.63,73.90"/>
    </edge>
    <edge id=":123_4" function="internal">
        <lane id=":123_4_0" index="0" disallow="pedestrian tram rail_urban rail rail_electric rail_fast ship container cable_car subway aircraft wheelchair scooter drone" speed="13.89" length="14.20" width="3.10" shape="44.60,70.80 58.80,70.68"/>
    </edge>
    <edge id=":123_5" function="internal">
        <lane id=":123_5_0" index="0" disallow="pedestrian tram rail_urban rail rail_electric rail_fast ship container cable_car subway aircraft wheelchair scooter drone" speed="7.92" length="3.93" width="3.10" shape="44.60,70.80 48.38,71.30,0.00 48.48,71.36,0.00"/>
    </edge>
    <edge id=":123_6" function="internal">
        <lane id=":123_6_0" index="0" disallow="pedestrian tram rail_urban rail rail_electric rail_fast ship container cable_car subway aircraft wheelchair scooter drone" speed="7.92" length="9.97" width="3.10" shape="48.48,71.36,0.00 51.10,72.89,0.00 52.75,75.56,0.00 53.34,79.31,0.00"/>
    </edge>
    <edge id=":146_0" function="internal">
        <lane id=":146_0_0" index="0" disallow="pedestrian tram rail_urban rail rail_electric rail_fast ship container cable_car subway aircraft wheelchair scooter drone" speed="7.36" length="11.33" width="3.20" shape="10.83,74.19 7.67,74.64 5.36,75.90 3.91,77.99 3.31,80.89"/>
    </edge>
    <edge id=":146_1" function="internal">
        <lane id=":146_1_0" index="0" disallow="pedestrian tram rail_urban rail rail_electric rail_fast ship container cable_car subway aircraft wheelchair scooter drone" speed="8.58" length="16.50" width="3.20" shape="10.83,74.19 6.32,73.60 3.09,71.72 1.13,68.56 0.44,64.11"/>
    </edge>
    <edge id=":146_2" function="internal">
        <lane id=":146_2_0" index="0" disallow="pedestrian tram rail_urban rail rail_electric rail_fast ship container cable_car subway aircraft wheelchair scooter drone" speed="7.24" length="11.43" width="3.10" shape="3.64,64.08 4.11,67.17 5.47,69.37 7.70,70.68 10.80,71.09"/>
    </edge>
    <edge id=":146_3" function="internal">
        <lane id=":146_3_0" index="0" disallow="pedestrian tram rail_urban rail rail_electric rail_fast ship container cable_car subway aircraft wheelchair scooter drone" speed="13.89" length="16.81" width="3.20" shape="3.64,64.08 3.31,80.89"/>
    </edge>
    <edge id=":146_4" function="internal">
        <lane id=":146_4_0" index="0" disallow="pedestrian tram rail_urban rail rail_electric rail_fast ship container cable_car subway aircraft wheelchair scooter drone" speed="13.89" length="16.62" width="3.20" shape="0.12,80.73 0.44,64.11"/>
    </edge>
    <edge id=":146_5" function="internal">
        <lane id=":146_5_0" index="0" disallow="pedestrian tram rail_urban rail rail_electric rail_fast ship container cable_car subway aircraft wheelchair scooter drone" speed="8.70" length="3.97" width="3.10" shape="0.12,80.73 0.91,76.84"/>
    </edge>
    <edge id=":146_6" function="internal">
        <lane id=":146_6_0" index="0" disallow="pedestrian tram rail_urban rail rail_electric rail_fast ship container cable_car subway aircraft wheelchair scooter drone" speed="8.70" length="12.23" width="3.10" shape="0.91,76.84 0.97,76.55 3.03,73.55 6.31,71.73 10.80,71.09"/>
    </edge>
    <edge id=":169_0" function="internal">
        <lane id=":169_0_0" index="0" disallow="pedestrian tram rail_urban rail rail_electric rail_fast ship container cable_car subway aircraft wheelchair scooter drone" speed="7.15" length="11.13" width="3.10" shape="51.27,166.01,0.23 50.80,163.04,0.23 49.46,160.93,0.23 47.26,159.68,0.23 44.20,159.28,0.23"/>
    </edge>
    <edge id=":169_1" function="internal">
        <lane id=":169_1_0" index="0" disallow="pedestrian tram rail_urban rail rail_electric rail_fast ship container cable_car subway aircraft wheelchair scooter drone" speed="13.89" length="16.80" width="3.10" shape="51.27,166.01,0.23 51.07,149.21,0.27"/>
    </edge>
    <edge id=":169_2" function="internal">
        <lane id=":169_2_0" index="0" disallow="pedestrian tram rail_urban rail rail_electric rail_fast ship container cable_car subway aircraft wheelchair scooter drone" speed="8.53" length="16.34" width="3.10" shape="51.27,166.01,0.23 51.87,161.68,0.20 53.79,158.57,0.17 57.02,156.70,0.14 61.56,156.04,0.11"/>
    </edge>
    <edge id=":169_3" function="internal">
        <lane id=":169_3_0" index="0" disallow="pedestrian tram rail_urban rail rail_electric rail_fast ship container cable_car subway aircraft wheelchair scooter drone" speed="7.19" length="11.33" width="3.10" shape="61.58,159.14,0.11 58.40,159.59,0.14 56.14,160.88,0.17 54.79,163.00,0.20 54.37,165.97,0.23"/>
    </edge>
    <edge id=":169_4" function="internal">
        <lane id=":169_4_0" index="0" disallow="pedestrian tram rail_urban rail rail_electric rail_fast ship container cable_car subway aircraft wheelchair scooter drone" speed="13.89" length="17.39" width="3.10" shape="61.58,159.14,0.11 44.20,159.28,0.23"/>
    </edge>
    <edge id=":169_5" function="internal">
        <lane id=":169_5_0" index="0" disallow="pedestrian tram rail_urban rail rail_electric rail_fast ship container cable_car subway aircraft wheelchair scooter drone" speed="8.59" length="4.59" width="3.10" shape="61.58,159.14,0.11 57.03,158.55,0.15"/>
    </edge>
    <edge id=":169_12" function="internal">
        <lane id=":169_12_0" index="0" disallow="pedestrian tram rail_urban rail rail_electric rail_fast ship container cable_car subway aircraft wheelchair scooter drone" speed="8.59" length="11.89" width="3.10" shape="57.03,158.55,0.15 53.76,156.70,0.19 51.77,153.58,0.23 51.07,149.21,0.27"/>
    </edge>
    <edge id=":169_6" function="internal">
        <lane id=":169_6_0" index="0" disallow="pedestrian tram rail_urban rail rail_electric rail_fast ship container cable_car subway aircraft wheelchair scooter drone" speed="7.26" length="11.50" width="3.10" shape="54.17,149.17,0.27 54.67,152.20,0.23 56.06,154.35,0.19 58.36,155.63,0.15 61.56,156.04,0.11"/>
    </edge>
    <edge id=":169_7" function="internal">
        <lane id=":169_7_0" index="0" disallow="pedestrian tram rail_urban rail rail_electric rail_fast ship container cable_car subway aircraft wheelchair scooter drone" speed="13.89" length="16.80" width="3.10" shape="54.17,149.17,0.27 54.37,165.97,0.23"/>
    </edge>
    <edge id=":169_8" function="internal">
        <lane id=":169_8_0" index="0" disallow="pedestrian tram rail_urban rail rail_electric rail_fast ship container cable_car subway aircraft wheelchair scooter drone" speed="8.49" length="16.21" width="3.10" shape="54.17,149.17,0.27 53.59,153.56,0.26 51.74,156.71,0.25 48.61,158.62,0.24 44.20,159.28,0.23"/>
    </edge>
    <edge id=":169_9" function="internal">
        <lane id=":169_9_0" index="0" disallow="pedestrian tram rail_urban rail rail_electric rail_fast ship container cable_car subway aircraft wheelchair scooter drone" speed="7.15" length="11.20" width="3.10" shape="44.17,156.18,0.23 47.22,155.72,0.24 49.39,154.41,0.25 50.67,152.24,0.26 51.07,149.21,0.27"/>
    </edge>
    <edge id=":169_10" function="internal">
        <lane id=":169_10_0" index="0" disallow="pedestrian tram rail_urban rail rail_electric rail_fast ship container cable_car subway aircraft wheelchair scooter drone" speed="13.89" length="17.39" width="3.10" shape="44.17,156.18,0.23 61.56,156.04,0.11"/>
    </edge>
    <edge id=":169_11" function="internal">
        <lane id=":169_11_0" index="0" disallow="pedestrian tram rail_urban rail rail_electric rail_fast ship container cable_car subway aircraft wheelchair scooter drone" speed="8.50" length="4.46" width="3.10" shape="44.17,156.18,0.23 48.59,156.76,0.23"/>
    </edge>
    <edge id=":169_13" function="internal">
        <lane id=":169_13_0" index="0" disallow="pedestrian tram rail_urban rail rail_electric rail_fast ship container cable_car subway aircraft wheelchair scooter drone" speed="8.50" length="11.65" width="3.10" shape="48.59,156.76,0.23 51.76,158.59,0.23 53.69,161.66,0.23 54.37,165.97,0.23"/>
    </edge>
    <edge id=":17.16_0" function="internal">
        <lane id=":17.16_0_0" index="0" disallow="pedestrian tram rail_urban rail rail_electric rail_fast ship container cable_car subway aircraft wheelchair scooter drone" speed="13.89" length="0.10" width="3.50" shape="187.14,188.74 187.14,188.74"/>
    </edge>
    <edge id=":17.16_1" function="internal">
        <lane id=":17.16_1_0" index="0" disallow="pedestrian tram rail_urban rail rail_electric rail_fast ship container cable_car subway aircraft wheelchair scooter drone" speed="13.89" length="0.10" width="3.50" shape="187.17,185.24 187.17,185.24"/>
    </edge>
    <edge id=":18.17_0" function="internal">
        <lane id=":18.17_0_0" index="0" disallow="pedestrian tram rail_urban rail rail_electric rail_fast ship container cable_car subway aircraft wheelchair scooter drone" speed="13.89" length="0.10" width="3.50" shape="114.65,188.07 114.65,188.07"/>
    </edge>
    <edge id=":18.17_1" function="internal">
        <lane id=":18.17_1_0" index="0" disallow="pedestrian tram rail_urban rail rail_electric rail_fast ship container cable_car subway aircraft wheelchair scooter drone" speed="13.89" length="0.10" width="3.50" shape="114.69,184.57 114.69,184.57"/>
    </edge>
    <edge id=":26#1_0" function="internal">
        <lane id=":26#1_0_0" index="0" allow="emergency authority" speed="13.89" length="3.08" width="3.50" shape="229.40,128.89,0.03 228.50,129.02,0.03 227.90,129.31,0.03 227.31,129.60,0.03 226.40,129.73,0.03"/>
        <lane id=":26#1_0_1" index="1" disallow="pedestrian tram rail_urban rail rail_electric rail_fast ship container cable_car subway aircraft wheelchair scooter drone" speed="13.89" length="3.08" width="3.50" shape="229.42,126.25,0.03 226.43,126.23,0.03"/>
    </edge>
    <edge id=":26#1_2" function="internal">
        <lane id=":26#1_2_0" index="0" disallow="pedestrian tram rail_urban rail rail_electric rail_fast ship container cable_car subway aircraft wheelchair scooter drone" speed="13.89" length="2.98" width="3.50" shape="226.47,122.73,0.03 229.45,122.75,0.03"/>
    </edge>
    <edge id=":26.25_0" function="internal">
        <lane id=":26.25_0_0" index="0" disallow="pedestrian tram rail_urban rail rail_electric rail_fast ship container cable_car subway aircraft wheelchair scooter drone" speed="13.89" length="8.03" width="3.50" shape="238.07,126.23,0.03 230.04,126.26,0.03"/>
    </edge>
    <edge id=":26.25_1" function="internal">
        <lane id=":26.25_1_0" index="0" disallow="pedestrian tram rail_urban rail rail_electric rail_fast ship container cable_car subway aircraft wheelchair scooter drone" speed="13.89" length="7.97" width="3.50" shape="230.07,122.76,0.03 238.03,122.73,0.03"/>
    </edge>
    <edge id=":260_0" function="internal">
        <lane id=":260_0_0" index="0" disallow="pedestrian tram rail_urban rail rail_electric rail_fast ship container cable_car subway aircraft wheelchair scooter drone" speed="7.34" length="12.11" width="3.50" shape="197.12,71.88 196.62,68.57,0.01 195.17,66.28,0.02 192.79,64.99,0.03 189.46,64.70,0.03"/>
    </edge>
    <edge id=":260_1" function="internal">
        <lane id=":260_1_0" index="0" disallow="pedestrian tram rail_urban rail rail_electric rail_fast ship container cable_car subway aircraft wheelchair scooter drone" speed="9.00" length="17.45" width="3.50" shape="197.12,71.88 197.72,66.98,0.01 199.61,63.40,0.02 202.78,61.13,0.03 207.25,60.18,0.03"/>
    </edge>
    <edge id=":260_2" function="internal">
        <lane id=":260_2_0" index="0" disallow="pedestrian tram rail_urban rail rail_electric rail_fast ship container cable_car subway aircraft wheelchair scooter drone" speed="7.56" length="12.01" width="3.50" shape="207.45,63.67,0.03 204.44,64.33,0.03 202.30,65.91,0.02 201.02,68.42,0.01 200.62,71.85"/>
    </edge>
    <edge id=":260_3" function="internal">
        <lane id=":260_3_0" index="0" disallow="pedestrian tram rail_urban rail rail_electric rail_fast ship container cable_car subway aircraft wheelchair scooter drone" speed="13.89" length="18.02" width="3.50" shape="207.45,63.67,0.03 189.46,64.70,0.03"/>
    </edge>
    <edge id=":260_4" function="internal">
        <lane id=":260_4_0" index="0" disallow="pedestrian tram rail_urban rail rail_electric rail_fast ship container cable_car subway aircraft wheelchair scooter drone" speed="13.89" length="18.02" width="3.50" shape="189.26,61.21,0.03 207.25,60.18,0.03"/>
    </edge>
    <edge id=":260_5" function="internal">
        <lane id=":260_5_0" index="0" disallow="pedestrian tram rail_urban rail rail_electric rail_fast ship container cable_car subway aircraft wheelchair scooter drone" speed="8.81" length="5.11" width="3.50" shape="189.26,61.21,0.03 194.19,61.63,0.03 194.33,61.70,0.02"/>
    </edge>
    <edge id=":260_6" function="internal">
        <lane id=":260_6_0" index="0" disallow="pedestrian tram rail_urban rail rail_electric rail_fast ship container cable_car subway aircraft wheelchair scooter drone" speed="8.81" length="12.84" width="3.50" shape="194.33,61.70,0.02 197.73,63.54,0.02 199.88,66.95,0.01 200.62,71.85"/>
    </edge>
    <edge id=":288_0" function="internal">
        <lane id=":288_0_0" index="0" disallow="pedestrian tram rail_urban rail rail_electric rail_fast ship container cable_car subway aircraft wheelchair scooter drone" speed="7.34" length="11.71" width="3.50" shape="198.96,291.08 198.48,287.91,0.04 197.10,285.65,0.07 194.82,284.32,0.10 191.64,283.89,0.14"/>
    </edge>
    <edge id=":288_1" function="internal">
        <lane id=":288_1_0" index="0" disallow="pedestrian tram rail_urban rail rail_electric rail_fast ship container cable_car subway aircraft wheelchair scooter drone" speed="13.89" length="18.20" width="3.50" shape="198.96,291.08 198.80,272.88"/>
    </edge>
    <edge id=":288_2" function="internal">
        <lane id=":288_2_0" index="0" disallow="pedestrian tram rail_urban rail rail_electric rail_fast ship container cable_car subway aircraft wheelchair scooter drone" speed="13.89" length="18.20" width="3.50" shape="202.30,272.85 202.46,291.05"/>
    </edge>
    <edge id=":288_3" function="internal">
        <lane id=":288_3_0" index="0" disallow="pedestrian tram rail_urban rail rail_electric rail_fast ship container cable_car subway aircraft wheelchair scooter drone" speed="8.86" length="5.07" width="3.50" shape="202.30,272.85 201.67,277.64,0.04 201.55,277.85,0.04"/>
    </edge>
    <edge id=":288_6" function="internal">
        <lane id=":288_6_0" index="0" disallow="pedestrian tram rail_urban rail rail_electric rail_fast ship container cable_car subway aircraft wheelchair scooter drone" speed="8.86" length="12.43" width="3.50" shape="201.55,277.85,0.04 199.68,281.08,0.07 196.34,283.16,0.10 191.64,283.89,0.14"/>
    </edge>
    <edge id=":288_4" function="internal">
        <lane id=":288_4_0" index="0" disallow="pedestrian tram rail_urban rail rail_electric rail_fast ship container cable_car subway aircraft wheelchair scooter drone" speed="7.40" length="11.86" width="3.50" shape="191.60,280.39,0.14 194.78,279.90,0.10 197.03,278.48,0.07 198.38,276.14,0.04 198.80,272.88"/>
    </edge>
    <edge id=":288_5" function="internal">
        <lane id=":288_5_0" index="0" disallow="pedestrian tram rail_urban rail rail_electric rail_fast ship container cable_car subway aircraft wheelchair scooter drone" speed="8.81" length="17.36" width="3.50" shape="191.60,280.39,0.14 196.32,281.02,0.10 199.70,283.01,0.07 201.74,286.35,0.04 202.46,291.05"/>
    </edge>
    <edge id=":314_0" function="internal">
        <lane id=":314_0_0" index="0" disallow="pedestrian tram rail_urban rail rail_electric rail_fast ship container cable_car subway aircraft wheelchair scooter drone" speed="13.89" length="18.33" width="3.50" shape="186.59,231.60,0.00 168.26,231.66,0.00"/>
    </edge>
    <edge id=":314_1" function="internal">
        <lane id=":314_1_0" index="0" disallow="pedestrian tram rail_urban rail rail_electric rail_fast ship container cable_car subway aircraft wheelchair scooter drone" speed="7.84" length="11.91" width="3.50" shape="179.23,220.17 180.16,223.65,0.00 181.70,226.13,0.00 183.84,227.61,0.00 186.58,228.10,0.00"/>
    </edge>
    <edge id=":314_2" function="internal">
        <lane id=":314_2_0" index="0" disallow="pedestrian tram rail_urban rail rail_electric rail_fast ship container cable_car subway aircraft wheelchair scooter drone" speed="13.89" length="18.33" width="3.50" shape="168.25,228.16,0.00 186.58,228.10,0.00"/>
    </edge>
    <edge id=":335_0" function="internal">
        <lane id=":335_0_0" index="0" disallow="pedestrian tram rail_urban rail rail_electric rail_fast ship container cable_car subway aircraft wheelchair scooter drone" speed="13.89" length="12.73" width="3.50" shape="274.36,67.63,0.03 271.63,65.61,0.03 269.03,64.19,0.03 266.23,63.20,0.03 262.92,62.44,0.03">
            <param key="signalID" value="998"/>
        </lane>
    </edge>
    <edge id=":335_1" function="internal">
        <lane id=":335_1_0" index="0" disallow="pedestrian tram rail_urban rail rail_electric rail_fast ship container cable_car subway aircraft wheelchair scooter drone" speed="9.67" length="3.30" width="3.20" shape="274.36,67.63,0.03 272.20,65.14,0.02">
            <param key="signalID" value="998"/>
        </lane>
    </edge>
    <edge id=":335_6" function="internal">
        <lane id=":335_6_0" index="0" disallow="pedestrian tram rail_urban rail rail_electric rail_fast ship container cable_car subway aircraft wheelchair scooter drone" speed="9.67" length="11.41" width="3.20" shape="272.20,65.14,0.02 271.05,62.04,0.01 270.91,58.33,0.01 271.78,54.02">
            <param key="signalID" value="998"/>
        </lane>
    </edge>
    <edge id=":335_2" function="internal">
        <lane id=":335_2_0" index="0" disallow="pedestrian tram rail_urban rail rail_electric rail_fast ship container cable_car subway aircraft wheelchair scooter drone" speed="8.33" length="10.75" width="3.50" shape="274.84,54.93 274.19,58.14,0.01 274.26,60.88,0.01 275.06,63.14,0.02 276.58,64.92,0.03">
            <param key="signalID" value="1000 999"/>
        </lane>
    </edge>
    <edge id=":335_3" function="internal">
        <lane id=":335_3_0" index="0" disallow="pedestrian tram rail_urban rail rail_electric rail_fast ship container cable_car subway aircraft wheelchair scooter drone" speed="8.72" length="15.74" width="3.50" shape="274.84,54.93 273.07,58.87,0.01 270.49,61.43,0.01 267.11,62.62,0.02 262.92,62.44,0.03">
            <param key="signalID" value="999"/>
        </lane>
    </edge>
    <edge id=":335_4" function="internal">
        <lane id=":335_4_0" index="0" disallow="pedestrian tram rail_urban rail rail_electric rail_fast ship container cable_car subway aircraft wheelchair scooter drone" speed="7.34" length="10.72" width="3.20" shape="263.56,59.00,0.03 266.47,59.14,0.02 268.80,58.35,0.01 270.57,56.65,0.01 271.78,54.02">
            <param key="signalID" value="998 1000"/>
        </lane>
    </edge>
    <edge id=":335_5" function="internal">
        <lane id=":335_5_0" index="0" disallow="pedestrian tram rail_urban rail rail_electric rail_fast ship container cable_car subway aircraft wheelchair scooter drone" speed="13.89" length="14.46" width="3.50" shape="263.56,59.00,0.03 267.13,59.87,0.03 270.47,61.12,0.03 273.61,62.79,0.03 276.58,64.92,0.03">
            <param key="signalID" value="998 999 1000"/>
        </lane>
    </edge>
    <edge id=":358_0" function="internal">
        <lane id=":358_0_0" index="0" disallow="pedestrian tram rail_urban rail rail_electric rail_fast ship container cable_car subway aircraft wheelchair scooter drone" speed="7.67" length="9.62" width="3.50" shape="105.23,224.49,0.04 103.71,223.23,0.03 101.70,222.66,0.02 99.22,222.79,0.01 96.26,223.60"/>
    </edge>
    <edge id=":358_1" function="internal">
        <lane id=":358_1_0" index="0" disallow="pedestrian tram rail_urban rail rail_electric rail_fast ship container cable_car subway aircraft wheelchair scooter drone" speed="13.89" length="16.39" width="3.50" shape="105.23,224.49,0.04 103.20,221.13,0.03 101.79,217.16,0.02 100.96,212.98,0.01 100.69,209.00"/>
    </edge>
    <edge id=":358_2" function="internal">
        <lane id=":358_2_0" index="0" disallow="pedestrian tram rail_urban rail rail_electric rail_fast ship container cable_car subway aircraft wheelchair scooter drone" speed="13.88" length="14.11" width="3.50" shape="104.19,208.99 104.34,212.63,0.01 104.91,216.06,0.02 106.05,219.28,0.03 107.96,222.30,0.04"/>
    </edge>
    <edge id=":358_3" function="internal">
        <lane id=":358_3_0" index="0" disallow="pedestrian tram rail_urban rail rail_electric rail_fast ship container cable_car subway aircraft wheelchair scooter drone" speed="10.30" length="17.77" width="3.50" shape="104.19,208.99 103.70,214.31 102.22,218.51 99.74,221.61 96.26,223.60"/>
    </edge>
    <edge id=":358_4" function="internal">
        <lane id=":358_4_0" index="0" disallow="pedestrian tram rail_urban rail rail_electric rail_fast ship container cable_car subway aircraft wheelchair scooter drone" speed="9.17" length="13.42" width="3.50" shape="95.07,220.30 97.53,218.75 99.29,216.35 100.35,213.10 100.69,209.00"/>
    </edge>
    <edge id=":358_5" function="internal">
        <lane id=":358_5_0" index="0" disallow="pedestrian tram rail_urban rail rail_electric rail_fast ship container cable_car subway aircraft wheelchair scooter drone" speed="9.01" length="14.05" width="3.50" shape="95.07,220.30 99.08,219.15,0.01 102.57,219.09,0.02 105.53,220.14,0.03 107.96,222.30,0.04"/>
    </edge>
    <edge id=":38.23_0" function="internal">
        <lane id=":38.23_0_0" index="0" disallow="pedestrian tram rail_urban rail rail_electric rail_fast ship container cable_car subway aircraft wheelchair scooter drone" speed="13.89" length="0.10" width="3.50" shape="234.58,62.54,0.03 234.58,62.54,0.03"/>
    </edge>
    <edge id=":38.23_1" function="internal">
        <lane id=":38.23_1_0" index="0" disallow="pedestrian tram rail_urban rail rail_electric rail_fast ship container cable_car subway aircraft wheelchair scooter drone" speed="13.89" length="0.10" width="3.50" shape="234.47,59.05,0.03 234.47,59.05,0.03"/>
    </edge>
    <edge id=":39.21_0" function="internal">
        <lane id=":39.21_0_0" index="0" disallow="pedestrian tram rail_urban rail rail_electric rail_fast ship container cable_car subway aircraft wheelchair scooter drone" speed="13.89" length="0.32" width="3.20" shape="27.34,371.33,0.01 27.02,371.38,-0.01"/>
    </edge>
    <edge id=":39.21_1" function="internal">
        <lane id=":39.21_1_0" index="0" disallow="pedestrian tram rail_urban rail rail_electric rail_fast ship container cable_car subway aircraft wheelchair scooter drone" speed="13.89" length="0.32" width="3.20" shape="26.51,368.22,-0.02 26.83,368.17,0.01"/>
    </edge>
    <edge id=":402_0" function="internal">
        <lane id=":402_0_0" index="0" disallow="pedestrian tram rail_urban rail rail_electric rail_fast ship container cable_car subway aircraft wheelchair scooter drone" speed="7.42" length="11.80" width="3.50" shape="198.16,195.96 197.67,192.84 196.25,190.60 193.92,189.25 190.66,188.77"/>
    </edge>
    <edge id=":402_1" function="internal">
        <lane id=":402_1_0" index="0" disallow="pedestrian tram rail_urban rail rail_electric rail_fast ship container cable_car subway aircraft wheelchair scooter drone" speed="13.89" length="18.00" width="3.50" shape="198.16,195.96 198.01,177.96"/>
    </edge>
    <edge id=":402_2" function="internal">
        <lane id=":402_2_0" index="0" disallow="pedestrian tram rail_urban rail rail_electric rail_fast ship container cable_car subway aircraft wheelchair scooter drone" speed="13.89" length="18.00" width="3.50" shape="201.51,177.93 201.66,195.93"/>
    </edge>
    <edge id=":402_3" function="internal">
        <lane id=":402_3_0" index="0" disallow="pedestrian tram rail_urban rail rail_electric rail_fast ship container cable_car subway aircraft wheelchair scooter drone" speed="8.81" length="5.03" width="3.50" shape="201.51,177.93 200.87,182.71 200.76,182.89"/>
    </edge>
    <edge id=":402_6" function="internal">
        <lane id=":402_6_0" index="0" disallow="pedestrian tram rail_urban rail rail_electric rail_fast ship container cable_car subway aircraft wheelchair scooter drone" speed="8.81" length="12.53" width="3.50" shape="200.76,182.89 198.84,186.11 195.44,188.13 190.66,188.77"/>
    </edge>
    <edge id=":402_4" function="internal">
        <lane id=":402_4_0" index="0" disallow="pedestrian tram rail_urban rail rail_electric rail_fast ship container cable_car subway aircraft wheelchair scooter drone" speed="7.34" length="11.84" width="3.50" shape="190.69,185.27 193.92,184.84 196.21,183.48 197.57,181.19 198.01,177.96"/>
    </edge>
    <edge id=":402_5" function="internal">
        <lane id=":402_5_0" index="0" disallow="pedestrian tram rail_urban rail rail_electric rail_fast ship container cable_car subway aircraft wheelchair scooter drone" speed="8.88" length="17.37" width="3.50" shape="190.69,185.27 195.46,185.98 198.87,187.99 200.94,191.31 201.66,195.93"/>
    </edge>
    <edge id=":430_0" function="internal">
        <lane id=":430_0_0" index="0" disallow="pedestrian tram rail_urban rail rail_electric rail_fast ship container cable_car subway aircraft wheelchair scooter drone" speed="13.89" length="18.69" width="3.20" shape="1.40,167.52 0.78,148.84"/>
    </edge>
    <edge id=":430_1" function="internal">
        <lane id=":430_1_0" index="0" disallow="pedestrian tram rail_urban rail rail_electric rail_fast ship container cable_car subway aircraft wheelchair scooter drone" speed="8.93" length="18.02" width="3.10" shape="1.40,167.52 2.05,162.70 4.13,159.24 7.66,157.15 12.62,156.42"/>
    </edge>
    <edge id=":430_2" function="internal">
        <lane id=":430_2_0" index="0" disallow="pedestrian tram rail_urban rail rail_electric rail_fast ship container cable_car subway aircraft wheelchair scooter drone" speed="7.64" length="12.92" width="3.20" shape="12.65,159.52 9.09,160.04 6.56,161.54 5.07,164.02 4.60,167.48"/>
    </edge>
    <edge id=":430_3" function="internal">
        <lane id=":430_3_0" index="0" disallow="pedestrian tram rail_urban rail rail_electric rail_fast ship container cable_car subway aircraft wheelchair scooter drone" speed="9.10" length="18.02" width="3.20" shape="12.65,159.52 7.68,158.89 4.04,156.90 1.74,153.55 0.78,148.84"/>
    </edge>
    <edge id=":430_4" function="internal">
        <lane id=":430_4_0" index="0" disallow="pedestrian tram rail_urban rail rail_electric rail_fast ship container cable_car subway aircraft wheelchair scooter drone" speed="7.84" length="13.11" width="3.10" shape="3.97,148.67 4.67,152.08 6.35,154.52 9.00,155.96 12.62,156.42"/>
    </edge>
    <edge id=":430_5" function="internal">
        <lane id=":430_5_0" index="0" disallow="pedestrian tram rail_urban rail rail_electric rail_fast ship container cable_car subway aircraft wheelchair scooter drone" speed="13.89" length="18.82" width="3.20" shape="3.97,148.67 4.60,167.48"/>
    </edge>
    <edge id=":453_0" function="internal">
        <lane id=":453_0_0" index="0" disallow="pedestrian tram rail_urban rail rail_electric rail_fast ship container cable_car subway aircraft wheelchair scooter drone" speed="13.89" length="12.02" width="3.20" shape="30.48,14.15 18.53,15.43"/>
    </edge>