<?xml version="1.0" encoding="UTF-8"?>

<!-- generated on 2024-07-23 20:36:12 by Eclipse SUMO netconvert Version 1.20.0
<configuration xmlns:xsi="http://www.w3.org/2001/XMLSchema-instance" xsi:noNamespaceSchemaLocation="http://sumo.dlr.de/xsd/netconvertConfiguration.xsd">

    <input>
        <opendrive-files value="Town01.xodr"/>
    </input>

    <output>
        <output-file value="Town01.net.xml"/>
    </output>

    <junctions>
        <no-turnarounds.except-deadend value="true"/>
    </junctions>

</configuration>
-->

<net version="1.20" junctionCornerDetail="5" rectangularLaneCut="true" limitTurnSpeed="5.50" xmlns:xsi="http://www.w3.org/2001/XMLSchema-instance" xsi:noNamespaceSchemaLocation="http://sumo.dlr.de/xsd/net_file.xsd">

    <location netOffset="0.06,328.61" convBoundary="0.00,0.00,394.44,328.66" origBoundary="0.000000,0.000000,0.000000,0.000000" projParameter="+proj=tmerc +lat_0=0 +lon_0=0 +k=1 +x_0=0 +y_0=0 +datum=WGS84 +units=m +geoidgrids=egm96_15.gtx +vunits=m +no_defs "/>

    <type id="driving" priority="1" speed="13.89" disallow="pedestrian tram rail_urban rail rail_electric rail_fast ship container cable_car subway aircraft wheelchair scooter drone" width="3.65"/>

    <edge id=":11.0_0" function="internal">
        <lane id=":11.0_0_0" index="0" disallow="pedestrian tram rail_urban rail rail_electric rail_fast ship container cable_car subway aircraft wheelchair scooter drone" speed="13.89" length="0.10" width="4.00" shape="384.65,330.59 384.65,330.59"/>
    </edge>
    <edge id=":11.0_1" function="internal">
        <lane id=":11.0_1_0" index="0" disallow="pedestrian tram rail_urban rail rail_electric rail_fast ship container cable_car subway aircraft wheelchair scooter drone" speed="13.89" length="0.10" width="4.00" shape="384.65,326.59 384.65,326.59">
            <param key="signalID" value="362"/>
        </lane>
    </edge>
    <edge id=":110_0" function="internal">
        <lane id=":110_0_0" index="0" disallow="pedestrian tram rail_urban rail rail_electric rail_fast ship container cable_car subway aircraft wheelchair scooter drone" speed="13.89" length="23.31" width="4.00" shape="102.75,330.66 79.44,330.65">
            <param key="signalID" value="369 369 364"/>
        </lane>
    </edge>
    <edge id=":110_1" function="internal">
        <lane id=":110_1_0" index="0" disallow="pedestrian tram rail_urban rail rail_electric rail_fast ship container cable_car subway aircraft wheelchair scooter drone" speed="9.95" length="6.77" width="4.00" shape="102.75,330.66 96.48,329.83 96.10,329.61">
            <param key="signalID" value="369 364"/>
        </lane>
    </edge>
    <edge id=":110_6" function="internal">
        <lane id=":110_6_0" index="0" disallow="pedestrian tram rail_urban rail rail_electric rail_fast ship container cable_car subway aircraft wheelchair scooter drone" speed="9.95" length="15.50" width="4.00" shape="96.10,329.61 92.01,327.33 89.33,323.18 88.43,317.37">
            <param key="signalID" value="369 364"/>
        </lane>
    </edge>
    <edge id=":110_2" function="internal">
        <lane id=":110_2_0" index="0" disallow="pedestrian tram rail_urban rail rail_electric rail_fast ship container cable_car subway aircraft wheelchair scooter drone" speed="8.48" length="15.82" width="4.00" shape="92.43,317.37 93.08,321.43 95.01,324.34 98.24,326.08 102.75,326.66">
            <param key="signalID" value="370 376"/>
        </lane>
    </edge>
    <edge id=":110_3" function="internal">
        <lane id=":110_3_0" index="0" disallow="pedestrian tram rail_urban rail rail_electric rail_fast ship container cable_car subway aircraft wheelchair scooter drone" speed="9.72" length="21.19" width="4.00" shape="92.43,317.37 91.62,323.18 89.18,327.33 85.12,329.82 79.44,330.65">
            <param key="signalID" value="371 376"/>
        </lane>
    </edge>
    <edge id=":110_4" function="internal">
        <lane id=":110_4_0" index="0" disallow="pedestrian tram rail_urban rail rail_electric rail_fast ship container cable_car subway aircraft wheelchair scooter drone" speed="8.21" length="14.74" width="4.00" shape="79.44,326.65 83.37,326.07 86.18,324.33 87.87,321.43 88.43,317.37">
            <param key="signalID" value="370"/>
        </lane>
    </edge>
    <edge id=":110_5" function="internal">
        <lane id=":110_5_0" index="0" disallow="pedestrian tram rail_urban rail rail_electric rail_fast ship container cable_car subway aircraft wheelchair scooter drone" speed="13.89" length="23.31" width="4.00" shape="79.44,326.65 102.75,326.66">
            <param key="signalID" value="371"/>
        </lane>
    </edge>
    <edge id=":143_0" function="internal">
        <lane id=":143_0_0" index="0" disallow="pedestrian tram rail_urban rail rail_electric rail_fast ship container cable_car subway aircraft wheelchair scooter drone" speed="8.19" length="14.63" width="4.00" shape="334.77,11.16 334.20,7.15 332.52,4.29 329.71,2.57 325.78,2.00">
            <param key="signalID" value="372"/>
        </lane>
    </edge>
    <edge id=":143_1" function="internal">
        <lane id=":143_1_0" index="0" disallow="pedestrian tram rail_urban rail rail_electric rail_fast ship container cable_car subway aircraft wheelchair scooter drone" speed="9.70" length="21.12" width="4.00" shape="334.77,11.16 335.58,5.40 338.02,1.29 342.09,-1.18 347.79,-2.00">
            <param key="signalID" value="372"/>
        </lane>
    </edge>
    <edge id=":143_2" function="internal">
        <lane id=":143_2_0" index="0" disallow="pedestrian tram rail_urban rail rail_electric rail_fast ship container cable_car subway aircraft wheelchair scooter drone" speed="8.19" length="14.66" width="4.00" shape="347.79,2.00 343.84,2.57 341.02,4.29 339.33,7.15 338.77,11.16">
            <param key="signalID" value="374"/>
        </lane>
    </edge>
    <edge id=":143_3" function="internal">
        <lane id=":143_3_0" index="0" disallow="pedestrian tram rail_urban rail rail_electric rail_fast ship container cable_car subway aircraft wheelchair scooter drone" speed="13.89" length="22.01" width="4.00" shape="347.79,2.00 325.78,2.00">
            <param key="signalID" value="374"/>
        </lane>
    </edge>
    <edge id=":143_4" function="internal">
        <lane id=":143_4_0" index="0" disallow="pedestrian tram rail_urban rail rail_electric rail_fast ship container cable_car subway aircraft wheelchair scooter drone" speed="13.89" length="22.01" width="4.00" shape="325.78,-2.00 347.79,-2.00">
            <param key="signalID" value="373 367"/>
        </lane>
    </edge>
    <edge id=":143_5" function="internal">
        <lane id=":143_5_0" index="0" disallow="pedestrian tram rail_urban rail rail_electric rail_fast ship container cable_car subway aircraft wheelchair scooter drone" speed="9.70" length="6.16" width="4.00" shape="325.78,-2.00 331.46,-1.18 331.82,-0.96">
            <param key="signalID" value="373 367"/>
        </lane>
    </edge>
    <edge id=":143_6" function="internal">
        <lane id=":143_6_0" index="0" disallow="pedestrian tram rail_urban rail rail_electric rail_fast ship container cable_car subway aircraft wheelchair scooter drone" speed="9.70" length="14.92" width="4.00" shape="331.82,-0.96 335.52,1.29 337.95,5.40 338.77,11.16">
            <param key="signalID" value="373 367"/>
        </lane>
    </edge>
    <edge id=":15.13_0" function="internal">
        <lane id=":15.13_0_0" index="0" disallow="pedestrian tram rail_urban rail rail_electric rail_fast ship container cable_car subway aircraft wheelchair scooter drone" speed="13.89" length="0.10" width="4.00" shape="-1.97,318.65 -1.97,318.65"/>
    </edge>
    <edge id=":15.13_1" function="internal">
        <lane id=":15.13_1_0" index="0" disallow="pedestrian tram rail_urban rail rail_electric rail_fast ship container cable_car subway aircraft wheelchair scooter drone" speed="13.89" length="0.10" width="4.00" shape="2.03,318.65 2.03,318.65"/>
    </edge>
    <edge id=":171_0" function="internal">
        <lane id=":171_0_0" index="0" disallow="pedestrian tram rail_urban rail rail_electric rail_fast ship container cable_car subway aircraft wheelchair scooter drone" speed="8.23" length="14.81" width="4.00" shape="101.45,273.11 97.51,273.70 94.69,275.45 93.00,278.37 92.44,282.46">
            <param key="signalID" value="377 393"/>
        </lane>
    </edge>
    <edge id=":171_1" function="internal">
        <lane id=":171_1_0" index="0" disallow="pedestrian tram rail_urban rail rail_electric rail_fast ship container cable_car subway aircraft wheelchair scooter drone" speed="9.61" length="20.69" width="4.00" shape="101.45,273.11 95.76,272.32 91.69,269.95 89.25,265.99 88.44,260.46">
            <param key="signalID" value="375 393"/>
        </lane>
    </edge>
    <edge id=":171_2" function="internal">
        <lane id=":171_2_0" index="0" disallow="pedestrian tram rail_urban rail rail_electric rail_fast ship container cable_car subway aircraft wheelchair scooter drone" speed="8.08" length="14.24" width="4.00" shape="92.44,260.46 93.00,264.24 94.69,266.95 97.51,268.57 101.45,269.11">
            <param key="signalID" value="377 391"/>
        </lane>
    </edge>
    <edge id=":171_3" function="internal">
        <lane id=":171_3_0" index="0" disallow="pedestrian tram rail_urban rail rail_electric rail_fast ship container cable_car subway aircraft wheelchair scooter drone" speed="13.89" length="22.00" width="4.00" shape="92.44,260.46 92.44,282.46">
            <param key="signalID" value="375 391"/>
        </lane>
    </edge>
    <edge id=":171_4" function="internal">
        <lane id=":171_4_0" index="0" disallow="pedestrian tram rail_urban rail rail_electric rail_fast ship container cable_car subway aircraft wheelchair scooter drone" speed="13.89" length="22.00" width="4.00" shape="88.44,282.46 88.44,260.46">
            <param key="signalID" value="376 370"/>
        </lane>
    </edge>
    <edge id=":171_5" function="internal">
        <lane id=":171_5_0" index="0" disallow="pedestrian tram rail_urban rail rail_electric rail_fast ship container cable_car subway aircraft wheelchair scooter drone" speed="9.74" length="6.35" width="4.00" shape="88.44,282.46 89.25,276.62 89.48,276.23">
            <param key="signalID" value="376 370"/>
        </lane>
    </edge>
    <edge id=":171_6" function="internal">
        <lane id=":171_6_0" index="0" disallow="pedestrian tram rail_urban rail rail_electric rail_fast ship container cable_car subway aircraft wheelchair scooter drone" speed="9.74" length="14.91" width="4.00" shape="89.48,276.23 91.69,272.45 95.76,269.95 101.45,269.11">
            <param key="signalID" value="376 370"/>
        </lane>
    </edge>
    <edge id=":194_0" function="internal">
        <lane id=":194_0_0" index="0" disallow="pedestrian tram rail_urban rail rail_electric rail_fast ship container cable_car subway aircraft wheelchair scooter drone" speed="8.28" length="15.02" width="4.00" shape="334.85,142.96 334.28,138.80 332.57,135.83 329.72,134.04 325.73,133.45">
            <param key="signalID" value="379"/>
        </lane>
    </edge>
    <edge id=":194_1" function="internal">
        <lane id=":194_1_0" index="0" disallow="pedestrian tram rail_urban rail rail_electric rail_fast ship container cable_car subway aircraft wheelchair scooter drone" speed="13.89" length="23.51" width="4.00" shape="334.85,142.96 334.83,119.45">
            <param key="signalID" value="380 379"/>
        </lane>
    </edge>
    <edge id=":194_2" function="internal">
        <lane id=":194_2_0" index="0" disallow="pedestrian tram rail_urban rail rail_electric rail_fast ship container cable_car subway aircraft wheelchair scooter drone" speed="13.89" length="23.51" width="4.00" shape="338.83,119.45 338.85,142.96">
            <param key="signalID" value="372 380"/>
        </lane>
    </edge>
    <edge id=":194_3" function="internal">
        <lane id=":194_3_0" index="0" disallow="pedestrian tram rail_urban rail rail_electric rail_fast ship container cable_car subway aircraft wheelchair scooter drone" speed="9.87" length="6.64" width="4.00" shape="338.83,119.45 338.02,125.57 337.79,125.98">
            <param key="signalID" value="372 380"/>
        </lane>
    </edge>
    <edge id=":194_6" function="internal">
        <lane id=":194_6_0" index="0" disallow="pedestrian tram rail_urban rail rail_electric rail_fast ship container cable_car subway aircraft wheelchair scooter drone" speed="9.87" length="15.22" width="4.00" shape="337.79,125.98 335.56,129.95 331.47,132.58 325.73,133.45">
            <param key="signalID" value="372 380"/>
        </lane>
    </edge>
    <edge id=":194_4" function="internal">
        <lane id=":194_4_0" index="0" disallow="pedestrian tram rail_urban rail rail_electric rail_fast ship container cable_car subway aircraft wheelchair scooter drone" speed="8.38" length="15.41" width="4.00" shape="325.73,129.45 329.71,128.83 332.56,126.95 334.27,123.83 334.83,119.45">
            <param key="signalID" value="385 378"/>
        </lane>
    </edge>
    <edge id=":194_5" function="internal">
        <lane id=":194_5_0" index="0" disallow="pedestrian tram rail_urban rail rail_electric rail_fast ship container cable_car subway aircraft wheelchair scooter drone" speed="9.78" length="21.47" width="4.00" shape="325.73,129.45 331.47,130.29 335.56,132.83 338.02,137.05 338.85,142.96">
            <param key="signalID" value="385 378"/>
        </lane>
    </edge>
    <edge id=":20.15_0" function="internal">
        <lane id=":20.15_0_0" index="0" disallow="pedestrian tram rail_urban rail rail_electric rail_fast ship container cable_car subway aircraft wheelchair scooter drone" speed="13.89" length="0.36" width="4.00" shape="-1.93,11.16 -1.93,10.79"/>
    </edge>
    <edge id=":20.15_1" function="internal">
        <lane id=":20.15_1_0" index="0" disallow="pedestrian tram rail_urban rail rail_electric rail_fast ship container cable_car subway aircraft wheelchair scooter drone" speed="13.89" length="0.36" width="4.00" shape="2.07,10.79 2.06,10.90 2.06,10.97 2.07,11.05 2.07,11.16"/>
    </edge>
    <edge id=":222_0" function="internal">
        <lane id=":222_0_0" index="0" disallow="pedestrian tram rail_urban rail rail_electric rail_fast ship container cable_car subway aircraft wheelchair scooter drone" speed="8.31" length="15.13" width="4.00" shape="334.93,282.19 334.32,278.23 332.50,275.40 329.47,273.70 325.22,273.14">
            <param key="signalID" value="361 383"/>
        </lane>
    </edge>
    <edge id=":222_1" function="internal">
        <lane id=":222_1_0" index="0" disallow="pedestrian tram rail_urban rail rail_electric rail_fast ship container cable_car subway aircraft wheelchair scooter drone" speed="13.89" length="22.61" width="4.00" shape="334.93,282.19 334.92,259.58">
            <param key="signalID" value="361 383"/>
        </lane>
    </edge>
    <edge id=":222_2" function="internal">
        <lane id=":222_2_0" index="0" disallow="pedestrian tram rail_urban rail rail_electric rail_fast ship container cable_car subway aircraft wheelchair scooter drone" speed="13.89" length="22.61" width="4.00" shape="338.92,259.58 338.93,282.19">
            <param key="signalID" value="389 382"/>
        </lane>
    </edge>
    <edge id=":222_3" function="internal">
        <lane id=":222_3_0" index="0" disallow="pedestrian tram rail_urban rail rail_electric rail_fast ship container cable_car subway aircraft wheelchair scooter drone" speed="9.89" length="6.35" width="4.00" shape="338.92,259.58 338.07,265.51 337.88,265.81">
            <param key="signalID" value="389 382"/>
        </lane>
    </edge>
    <edge id=":222_6" function="internal">
        <lane id=":222_6_0" index="0" disallow="pedestrian tram rail_urban rail rail_electric rail_fast ship container cable_car subway aircraft wheelchair scooter drone" speed="9.89" length="15.64" width="4.00" shape="337.88,265.81 335.50,269.75 331.22,272.29 325.22,273.14">
            <param key="signalID" value="389 382"/>
        </lane>
    </edge>
    <edge id=":222_4" function="internal">
        <lane id=":222_4_0" index="0" disallow="pedestrian tram rail_urban rail rail_electric rail_fast ship container cable_car subway aircraft wheelchair scooter drone" speed="8.41" length="15.53" width="4.00" shape="325.22,269.14 329.47,268.54 332.50,266.75 334.31,263.76 334.92,259.58">
            <param key="signalID" value="395 381"/>
        </lane>
    </edge>
    <edge id=":222_5" function="internal">
        <lane id=":222_5_0" index="0" disallow="pedestrian tram rail_urban rail rail_electric rail_fast ship container cable_car subway aircraft wheelchair scooter drone" speed="9.81" length="21.58" width="4.00" shape="325.22,269.14 331.22,269.95 335.50,272.40 338.07,276.48 338.93,282.19">
            <param key="signalID" value="395 381"/>
        </lane>
    </edge>
    <edge id=":255_0" function="internal">
        <lane id=":255_0_0" index="0" disallow="pedestrian tram rail_urban rail rail_electric rail_fast ship container cable_car subway aircraft wheelchair scooter drone" speed="8.12" length="14.38" width="4.00" shape="101.48,133.47 97.53,134.02 94.71,135.67 93.02,138.43 92.46,142.28">
            <param key="signalID" value="378 385"/>
        </lane>
    </edge>
    <edge id=":255_1" function="internal">
        <lane id=":255_1_0" index="0" disallow="pedestrian tram rail_urban rail rail_electric rail_fast ship container cable_car subway aircraft wheelchair scooter drone" speed="9.71" length="21.13" width="4.00" shape="101.48,133.47 95.78,132.65 91.72,130.17 89.27,126.05 88.46,120.28">
            <param key="signalID" value="378 384"/>
        </lane>
    </edge>
    <edge id=":255_2" function="internal">
        <lane id=":255_2_0" index="0" disallow="pedestrian tram rail_urban rail rail_electric rail_fast ship container cable_car subway aircraft wheelchair scooter drone" speed="8.20" length="14.68" width="4.00" shape="92.46,120.28 93.02,124.30 94.72,127.17 97.53,128.90 101.48,129.47">
            <param key="signalID" value="368 385"/>
        </lane>
    </edge>
    <edge id=":255_3" function="internal">
        <lane id=":255_3_0" index="0" disallow="pedestrian tram rail_urban rail rail_electric rail_fast ship container cable_car subway aircraft wheelchair scooter drone" speed="13.89" length="22.00" width="4.00" shape="92.46,120.28 92.46,142.28">
            <param key="signalID" value="368 384"/>
        </lane>
    </edge>
    <edge id=":255_4" function="internal">
        <lane id=":255_4_0" index="0" disallow="pedestrian tram rail_urban rail rail_electric rail_fast ship container cable_car subway aircraft wheelchair scooter drone" speed="13.89" length="22.00" width="4.00" shape="88.46,142.28 88.46,120.28">
            <param key="signalID" value="390 386"/>
        </lane>
    </edge>
    <edge id=":255_5" function="internal">
        <lane id=":255_5_0" index="0" disallow="pedestrian tram rail_urban rail rail_electric rail_fast ship container cable_car subway aircraft wheelchair scooter drone" speed="9.65" length="6.10" width="4.00" shape="88.46,142.28 89.27,136.68 89.50,136.30">
            <param key="signalID" value="390 386"/>
        </lane>
    </edge>
    <edge id=":255_6" function="internal">
        <lane id=":255_6_0" index="0" disallow="pedestrian tram rail_urban rail rail_electric rail_fast ship container cable_car subway aircraft wheelchair scooter drone" speed="9.65" length="14.73" width="4.00" shape="89.50,136.30 91.71,132.67 95.78,130.27 101.48,129.47">
            <param key="signalID" value="390 386"/>
        </lane>
    </edge>
    <edge id=":26_0" function="internal">
        <lane id=":26_0_0" index="0" disallow="pedestrian tram rail_urban rail rail_electric rail_fast ship container cable_car subway aircraft wheelchair scooter drone" speed="13.89" length="22.60" width="4.00" shape="348.29,330.61 325.69,330.62">
            <param key="signalID" value="362"/>
        </lane>
    </edge>
    <edge id=":26_1" function="internal">
        <lane id=":26_1_0" index="0" disallow="pedestrian tram rail_urban rail rail_electric rail_fast ship container cable_car subway aircraft wheelchair scooter drone" speed="9.70" length="6.38" width="4.00" shape="348.29,330.61 342.46,329.81 342.03,329.57">
            <param key="signalID" value="362"/>
        </lane>
    </edge>
    <edge id=":26_6" function="internal">
        <lane id=":26_6_0" index="0" disallow="pedestrian tram rail_urban rail rail_electric rail_fast ship container cable_car subway aircraft wheelchair scooter drone" speed="9.70" length="14.69" width="4.00" shape="342.03,329.57 338.29,327.42 335.79,323.42 334.95,317.82">
            <param key="signalID" value="362"/>
        </lane>
    </edge>
    <edge id=":26_2" function="internal">
        <lane id=":26_2_0" index="0" disallow="pedestrian tram rail_urban rail rail_electric rail_fast ship container cable_car subway aircraft wheelchair scooter drone" speed="8.18" length="14.62" width="4.00" shape="338.95,317.82 339.54,321.67 341.29,324.41 344.21,326.06 348.29,326.61">
            <param key="signalID" value="383 361"/>
        </lane>
    </edge>
    <edge id=":26_3" function="internal">
        <lane id=":26_3_0" index="0" disallow="pedestrian tram rail_urban rail rail_electric rail_fast ship container cable_car subway aircraft wheelchair scooter drone" speed="9.69" length="21.02" width="4.00" shape="338.95,317.82 338.13,323.42 335.64,327.42 331.50,329.82 325.69,330.62">
            <param key="signalID" value="383 360"/>
        </lane>
    </edge>
    <edge id=":26_4" function="internal">
        <lane id=":26_4_0" index="0" disallow="pedestrian tram rail_urban rail rail_electric rail_fast ship container cable_car subway aircraft wheelchair scooter drone" speed="8.17" length="14.57" width="4.00" shape="325.69,326.62 329.74,326.07 332.64,324.42 334.38,321.67 334.95,317.82">
            <param key="signalID" value="361"/>
        </lane>
    </edge>
    <edge id=":26_5" function="internal">
        <lane id=":26_5_0" index="0" disallow="pedestrian tram rail_urban rail rail_electric rail_fast ship container cable_car subway aircraft wheelchair scooter drone" speed="13.89" length="22.60" width="4.00" shape="325.69,326.62 348.29,326.61">
            <param key="signalID" value="360"/>
        </lane>
    </edge>
    <edge id=":278_0" function="internal">
        <lane id=":278_0_0" index="0" disallow="pedestrian tram rail_urban rail rail_electric rail_fast ship container cable_car subway aircraft wheelchair scooter drone" speed="8.18" length="14.61" width="4.00" shape="334.89,208.03 334.31,204.12 332.59,201.33 329.72,199.65 325.70,199.09">
            <param key="signalID" value="382 389"/>
        </lane>
    </edge>
    <edge id=":278_1" function="internal">
        <lane id=":278_1_0" index="0" disallow="pedestrian tram rail_urban rail rail_electric rail_fast ship container cable_car subway aircraft wheelchair scooter drone" speed="13.89" length="23.09" width="4.00" shape="334.89,208.03 334.87,184.94">
            <param key="signalID" value="382 388 389"/>
        </lane>
    </edge>
    <edge id=":278_2" function="internal">
        <lane id=":278_2_0" index="0" disallow="pedestrian tram rail_urban rail rail_electric rail_fast ship container cable_car subway aircraft wheelchair scooter drone" speed="13.89" length="23.09" width="4.00" shape="338.87,184.94 338.89,208.03">
            <param key="signalID" value="379 388"/>
        </lane>
    </edge>
    <edge id=":278_3" function="internal">
        <lane id=":278_3_0" index="0" disallow="pedestrian tram rail_urban rail rail_electric rail_fast ship container cable_car subway aircraft wheelchair scooter drone" speed="9.91" length="6.70" width="4.00" shape="338.87,184.94 338.05,191.13 337.83,191.53">
            <param key="signalID" value="379 388"/>
        </lane>
    </edge>
    <edge id=":278_6" function="internal">
        <lane id=":278_6_0" index="0" disallow="pedestrian tram rail_urban rail rail_electric rail_fast ship container cable_car subway aircraft wheelchair scooter drone" speed="9.91" length="15.34" width="4.00" shape="337.83,191.53 335.58,195.55 331.47,198.21 325.70,199.09">
            <param key="signalID" value="379 388"/>
        </lane>
    </edge>
    <edge id=":278_4" function="internal">
        <lane id=":278_4_0" index="0" disallow="pedestrian tram rail_urban rail rail_electric rail_fast ship container cable_car subway aircraft wheelchair scooter drone" speed="8.43" length="15.59" width="4.00" shape="325.70,195.09 329.71,194.46 332.58,192.55 334.30,189.38 334.87,184.94">
            <param key="signalID" value="387 392"/>
        </lane>
    </edge>
    <edge id=":278_5" function="internal">
        <lane id=":278_5_0" index="0" disallow="pedestrian tram rail_urban rail rail_electric rail_fast ship container cable_car subway aircraft wheelchair scooter drone" speed="9.70" length="21.06" width="4.00" shape="325.70,195.09 331.47,195.90 335.59,198.33 338.06,202.37 338.89,208.03">
            <param key="signalID" value="387 392"/>
        </lane>
    </edge>
    <edge id=":3.13_0" function="internal">
        <lane id=":3.13_0_0" index="0" disallow="pedestrian tram rail_urban rail rail_electric rail_fast ship container cable_car subway aircraft wheelchair scooter drone" speed="13.89" length="0.10" width="4.00" shape="11.09,330.63 11.09,330.63">
            <param key="signalID" value="371"/>
        </lane>
    </edge>
    <edge id=":3.13_1" function="internal">
        <lane id=":3.13_1_0" index="0" disallow="pedestrian tram rail_urban rail rail_electric rail_fast ship container cable_car subway aircraft wheelchair scooter drone" speed="13.89" length="0.10" width="4.00" shape="11.09,326.63 11.09,326.63"/>
    </edge>
    <edge id=":306_0" function="internal">
        <lane id=":306_0_0" index="0" disallow="pedestrian tram rail_urban rail rail_electric rail_fast ship container cable_car subway aircraft wheelchair scooter drone" speed="8.28" length="15.01" width="4.00" shape="101.48,199.20 97.53,199.80 94.71,201.59 93.01,204.58 92.45,208.77">
            <param key="signalID" value="392 387"/>
        </lane>
    </edge>
    <edge id=":306_1" function="internal">
        <lane id=":306_1_0" index="0" disallow="pedestrian tram rail_urban rail rail_electric rail_fast ship container cable_car subway aircraft wheelchair scooter drone" speed="9.58" length="20.53" width="4.00" shape="101.48,199.20 95.78,198.42 91.71,196.09 89.27,192.21 88.45,186.77">
            <param key="signalID" value="390 387"/>
        </lane>
    </edge>
    <edge id=":306_2" function="internal">
        <lane id=":306_2_0" index="0" disallow="pedestrian tram rail_urban rail rail_electric rail_fast ship container cable_car subway aircraft wheelchair scooter drone" speed="8.04" length="14.08" width="4.00" shape="92.45,186.77 93.02,190.46 94.71,193.09 97.53,194.67 101.48,195.20">
            <param key="signalID" value="386 392"/>
        </lane>
    </edge>
    <edge id=":306_3" function="internal">
        <lane id=":306_3_0" index="0" disallow="pedestrian tram rail_urban rail rail_electric rail_fast ship container cable_car subway aircraft wheelchair scooter drone" speed="13.89" length="22.00" width="4.00" shape="92.45,186.77 92.45,208.77">
            <param key="signalID" value="386 390"/>
        </lane>
    </edge>
    <edge id=":306_4" function="internal">
        <lane id=":306_4_0" index="0" disallow="pedestrian tram rail_urban rail rail_electric rail_fast ship container cable_car subway aircraft wheelchair scooter drone" speed="13.89" length="22.00" width="4.00" shape="88.45,208.77 88.45,186.77">
            <param key="signalID" value="375 391"/>
        </lane>
    </edge>
    <edge id=":306_5" function="internal">
        <lane id=":306_5_0" index="0" disallow="pedestrian tram rail_urban rail rail_electric rail_fast ship container cable_car subway aircraft wheelchair scooter drone" speed="9.78" length="6.45" width="4.00" shape="88.45,208.77 89.26,202.83 89.49,202.43">
            <param key="signalID" value="375 391"/>
        </lane>
    </edge>
    <edge id=":306_6" function="internal">
        <lane id=":306_6_0" index="0" disallow="pedestrian tram rail_urban rail rail_electric rail_fast ship container cable_car subway aircraft wheelchair scooter drone" speed="9.78" length="15.00" width="4.00" shape="89.49,202.43 91.71,198.59 95.78,196.05 101.48,195.20">
            <param key="signalID" value="375 391"/>
        </lane>
    </edge>
    <edge id=":332_0" function="internal">
        <lane id=":332_0_0" index="0" disallow="pedestrian tram rail_urban rail rail_electric rail_fast ship container cable_car subway aircraft wheelchair scooter drone" speed="8.23" length="14.78" width="4.00" shape="154.08,282.41 153.51,278.35 151.82,275.44 149.00,273.70 145.05,273.12">
            <param key="signalID" value="363 394"/>
        </lane>
    </edge>
    <edge id=":332_1" function="internal">
        <lane id=":332_1_0" index="0" disallow="pedestrian tram rail_urban rail rail_electric rail_fast ship container cable_car subway aircraft wheelchair scooter drone" speed="9.75" length="21.33" width="4.00" shape="154.08,282.41 154.90,276.60 157.36,272.44 161.47,269.95 167.23,269.12">
            <param key="signalID" value="363 394"/>
        </lane>
    </edge>
    <edge id=":332_2" function="internal">
        <lane id=":332_2_0" index="0" disallow="pedestrian tram rail_urban rail rail_electric rail_fast ship container cable_car subway aircraft wheelchair scooter drone" speed="8.24" length="14.87" width="4.00" shape="167.23,273.12 163.22,273.70 160.36,275.44 158.65,278.34 158.08,282.41">
            <param key="signalID" value="381 395"/>
        </lane>
    </edge>
    <edge id=":332_3" function="internal">