<?xml version="1.0" encoding="UTF-8"?>

<!-- generated on 2025-01-22 23:02:11 by Eclipse SUMO netconvert Version 1.18.0
<configuration xmlns:xsi="http://www.w3.org/2001/XMLSchema-instance" xsi:noNamespaceSchemaLocation="http://sumo.dlr.de/xsd/netconvertConfiguration.xsd">

    <input>
        <opendrive-files value="Town02.xodr"/>
    </input>

    <output>
        <output-file value="Town02.net.xml"/>
        <output.original-names value="true"/>
    </output>

    <processing>
        <geometry.remove value="true"/>
        <geometry.min-radius.fix value="true"/>
    </processing>

    <tls_building>
        <tls.discard-simple value="true"/>
        <tls.join value="true"/>
        <tls.guess-signals value="true"/>
    </tls_building>

    <junctions>
        <no-turnarounds.except-deadend value="true"/>
    </junctions>

    <formats>
        <opendrive.import-all-lanes value="true"/>
        <opendrive.curve-resolution value="1"/>
    </formats>

</configuration>
-->

<net version="1.16" junctionCornerDetail="5" rectangularLaneCut="true" limitTurnSpeed="5.50" xmlns:xsi="http://www.w3.org/2001/XMLSchema-instance" xsi:noNamespaceSchemaLocation="http://sumo.dlr.de/xsd/net_file.xsd">

    <location netOffset="5.46,304.56" convBoundary="0.00,0.00,197.20,197.17" origBoundary="0.000000,0.000000,0.000000,0.000000" projParameter="+proj=tmerc +lat_0=0 +lon_0=0 +k=1 +x_0=0 +y_0=0 +datum=WGS84 +units=m  +vunits=m +no_defs "/>


    <edge id=":132_0" function="internal">
        <lane id=":132_0_0" index="0" disallow="pedestrian tram rail_urban rail rail_electric rail_fast ship" speed="8.68" length="16.61" width="4.00" shape="137.58,77.94 136.93,73.43 135.00,70.21 131.78,68.28 127.27,67.64">
            <param key="origId" value="142_1"/>
            <param key="signalID" value="462 471"/>
        </lane>
    </edge>
    <edge id=":132_1" function="internal">
        <lane id=":132_1_0" index="0" disallow="pedestrian tram rail_urban rail rail_electric rail_fast ship" speed="10.12" length="23.07" width="4.00" shape="137.58,77.94 138.47,71.68 141.15,67.21 145.61,64.53 151.87,63.63">
            <param key="origId" value="148_1"/>
            <param key="signalID" value="463 471"/>
        </lane>
    </edge>
    <edge id=":132_2" function="internal">
        <lane id=":132_2_0" index="0" disallow="pedestrian tram rail_urban rail rail_electric rail_fast ship" speed="8.68" length="16.61" width="4.00" shape="151.87,67.63 147.37,68.27 144.15,70.21 142.22,73.43 141.58,77.94">
            <param key="origId" value="157_-1"/>
            <param key="signalID" value="457 464"/>
        </lane>
    </edge>
    <edge id=":132_3" function="internal">
        <lane id=":132_3_0" index="0" disallow="pedestrian tram rail_urban rail rail_electric rail_fast ship" speed="13.89" length="24.60" width="4.00" shape="151.87,67.63 127.27,67.64">
            <param key="origId" value="177_-1"/>
            <param key="signalID" value="457 464"/>
        </lane>
    </edge>
    <edge id=":132_4" function="internal">
        <lane id=":132_4_0" index="0" speed="13.89" length="24.60" width="4.00" shape="127.27,59.34 151.87,59.33">
            <param key="origId" value="178_3"/>
            <param key="signalID" value="460"/>
        </lane>
        <lane id=":132_4_1" index="1" disallow="all" speed="1.39" length="24.60" width="0.30" shape="127.27,61.49 151.87,61.48">
            <param key="origId" value="178_2"/>
            <param key="signalID" value="460"/>
        </lane>
        <lane id=":132_4_2" index="2" disallow="pedestrian tram rail_urban rail rail_electric rail_fast ship" speed="13.89" length="24.60" width="4.00" shape="127.27,63.64 151.87,63.63">
            <param key="origId" value="178_1"/>
            <param key="signalID" value="460 462"/>
        </lane>
    </edge>
    <edge id=":132_7" function="internal">
        <lane id=":132_7_0" index="0" disallow="pedestrian tram rail_urban rail rail_electric rail_fast ship" speed="10.12" length="6.60" width="4.00" shape="127.27,63.64 133.53,64.53 133.77,64.68">
            <param key="origId" value="134_1"/>
            <param key="signalID" value="460 463"/>
        </lane>
    </edge>
    <edge id=":132_8" function="internal">
        <lane id=":132_8_0" index="0" disallow="pedestrian tram rail_urban rail rail_electric rail_fast ship" speed="10.12" length="16.46" width="4.00" shape="133.77,64.68 138.00,67.21 140.68,71.68 141.58,77.94">
            <param key="origId" value="134_1"/>
            <param key="signalID" value="460 463"/>
        </lane>
    </edge>
    <edge id=":188_0" function="internal">
        <lane id=":188_0_0" index="0" speed="13.89" length="24.60" width="4.00" shape="61.62,121.28 37.02,121.29">
            <param key="origId" value="200_3"/>
            <param key="signalID" value="472"/>
        </lane>
        <lane id=":188_0_1" index="1" disallow="all" speed="1.39" length="24.60" width="0.30" shape="61.62,119.13 37.02,119.14">
            <param key="origId" value="200_2"/>
            <param key="signalID" value="472"/>
        </lane>
        <lane id=":188_0_2" index="2" disallow="pedestrian tram rail_urban rail rail_electric rail_fast ship" speed="13.89" length="24.60" width="4.00" shape="61.62,116.98 37.02,116.99">
            <param key="origId" value="200_1"/>
            <param key="signalID" value="467 472"/>
        </lane>
    </edge>
    <edge id=":188_3" function="internal">
        <lane id=":188_3_0" index="0" disallow="pedestrian tram rail_urban rail rail_electric rail_fast ship" speed="10.12" length="6.61" width="4.00" shape="61.62,116.98 55.36,116.09 55.11,115.94">
            <param key="origId" value="224_1"/>
            <param key="signalID" value="467 472"/>
        </lane>
    </edge>
    <edge id=":188_8" function="internal">
        <lane id=":188_8_0" index="0" disallow="pedestrian tram rail_urban rail rail_electric rail_fast ship" speed="10.12" length="16.46" width="4.00" shape="55.11,115.94 50.89,113.41 48.20,108.94 47.31,102.68">
            <param key="origId" value="224_1"/>
            <param key="signalID" value="467 472"/>
        </lane>
    </edge>
    <edge id=":188_4" function="internal">
        <lane id=":188_4_0" index="0" disallow="pedestrian tram rail_urban rail rail_electric rail_fast ship" speed="8.68" length="16.61" width="4.00" shape="51.31,102.68 51.95,107.19 53.89,110.41 57.11,112.34 61.61,112.98">
            <param key="origId" value="216_-1"/>
            <param key="signalID" value="466 461"/>
        </lane>
    </edge>
    <edge id=":188_5" function="internal">
        <lane id=":188_5_0" index="0" disallow="pedestrian tram rail_urban rail rail_electric rail_fast ship" speed="10.12" length="23.06" width="4.00" shape="51.31,102.68 50.42,108.94 47.74,113.41 43.27,116.10 37.02,116.99">
            <param key="origId" value="236_-1"/>
            <param key="signalID" value="466 461"/>
        </lane>
    </edge>
    <edge id=":188_6" function="internal">
        <lane id=":188_6_0" index="0" disallow="pedestrian tram rail_urban rail rail_electric rail_fast ship" speed="8.68" length="16.62" width="4.00" shape="37.01,112.99 41.52,112.35 44.74,110.41 46.67,107.19 47.31,102.68">
            <param key="origId" value="232_-1"/>
            <param key="signalID" value="465 477"/>
        </lane>
    </edge>
    <edge id=":188_7" function="internal">
        <lane id=":188_7_0" index="0" disallow="pedestrian tram rail_urban rail rail_electric rail_fast ship" speed="13.89" length="24.60" width="4.00" shape="37.01,112.99 61.61,112.98">
            <param key="origId" value="199_-1"/>
            <param key="signalID" value="465 477"/>
        </lane>
    </edge>
    <edge id=":2.0_0" function="internal">
        <lane id=":2.0_0_0" index="0" speed="10.82" length="23.11" width="4.00" shape="-6.21,11.35 -5.25,3.63 -2.39,-1.89 2.36,-5.20 9.00,-6.30">
            <param key="signalID" value="479"/>
        </lane>
        <lane id=":2.0_0_1" index="1" disallow="all" speed="1.39" length="23.11" width="0.30" shape="-4.06,11.35 -3.23,4.57 -0.77,-0.28 3.33,-3.18 9.06,-4.15">
            <param key="signalID" value="479"/>
        </lane>
        <lane id=":2.0_0_2" index="2" disallow="pedestrian tram rail_urban rail rail_electric rail_fast ship" speed="9.40" length="23.11" width="4.00" shape="-1.91,11.36 -1.22,5.51 0.85,1.34 4.30,-1.17 9.11,-2.00">
            <param key="signalID" value="479"/>
        </lane>
    </edge>
    <edge id=":2.0_3" function="internal">
        <lane id=":2.0_3_0" index="0" speed="5.82" length="9.85" width="4.00" shape="9.32,6.30 8.04,6.66 7.13,7.63 6.57,9.20 6.39,11.37"/>
        <lane id=":2.0_3_1" index="1" disallow="all" speed="1.39" length="9.85" width="0.30" shape="9.22,4.15 7.04,4.69 5.49,6.07 4.55,8.30 4.24,11.37"/>
        <lane id=":2.0_3_2" index="2" disallow="pedestrian tram rail_urban rail rail_electric rail_fast ship" speed="7.96" length="9.85" width="4.00" shape="9.21,1.99 6.10,2.71 3.88,4.52 2.54,7.40 2.09,11.36"/>
    </edge>
    <edge id=":2.18_0" function="internal">
        <lane id=":2.18_0_0" index="0" speed="13.89" length="2.10" width="4.00" shape="11.58,6.30 9.51,6.29">
            <param key="signalID" value="474"/>
        </lane>
        <lane id=":2.18_0_1" index="1" disallow="all" speed="1.39" length="2.10" width="0.30" shape="11.58,4.15 9.51,4.13">
            <param key="signalID" value="474"/>
        </lane>
        <lane id=":2.18_0_2" index="2" disallow="pedestrian tram rail_urban rail rail_electric rail_fast ship" speed="13.89" length="2.10" width="4.00" shape="11.58,2.00 9.41,1.98">
            <param key="signalID" value="474"/>
        </lane>
    </edge>
    <edge id=":2.18_3" function="internal">
        <lane id=":2.18_3_0" index="0" speed="13.89" length="2.33" width="4.00" shape="9.20,-6.30 11.58,-6.30"/>
        <lane id=":2.18_3_1" index="1" disallow="all" speed="1.39" length="2.33" width="0.30" shape="9.26,-4.15 11.58,-4.15"/>
        <lane id=":2.18_3_2" index="2" disallow="pedestrian tram rail_urban rail rail_electric rail_fast ship" speed="13.89" length="2.33" width="4.00" shape="9.31,-2.00 11.58,-2.00"/>
    </edge>
    <edge id=":20_0" function="internal">
        <lane id=":20_0_0" index="0" disallow="pedestrian tram rail_urban rail rail_electric rail_fast ship" speed="8.68" length="16.62" width="4.00" shape="195.15,77.91 194.51,73.40 192.58,70.18 189.36,68.25 184.85,67.61">
            <param key="origId" value="68_1"/>
            <param key="signalID" value="468 457"/>
        </lane>
    </edge>
    <edge id=":20_1" function="internal">
        <lane id=":20_1_0" index="0" disallow="pedestrian tram rail_urban rail rail_electric rail_fast ship" speed="13.89" length="24.59" width="4.00" shape="195.15,77.91 195.16,53.32">
            <param key="origId" value="31_1"/>
            <param key="signalID" value="468 458"/>
        </lane>
    </edge>
    <edge id=":20_2" function="internal">
        <lane id=":20_2_0" index="0" speed="13.89" length="24.60" width="4.00" shape="203.46,53.31 203.45,77.91">
            <param key="origId" value="32_-3"/>
        </lane>
        <lane id=":20_2_1" index="1" disallow="all" speed="1.39" length="24.60" width="0.30" shape="201.31,53.31 201.30,77.91">
            <param key="origId" value="32_-2"/>
        </lane>
        <lane id=":20_2_2" index="2" disallow="pedestrian tram rail_urban rail rail_electric rail_fast ship" speed="13.89" length="24.60" width="4.00" shape="199.16,53.31 199.15,77.91">
            <param key="origId" value="32_-1"/>
            <param key="signalID" value="456"/>
        </lane>
    </edge>
    <edge id=":20_5" function="internal">
        <lane id=":20_5_0" index="0" disallow="pedestrian tram rail_urban rail rail_electric rail_fast ship" speed="10.12" length="6.61" width="4.00" shape="199.16,53.31 198.27,59.56 198.12,59.82">
            <param key="origId" value="47_-1"/>
            <param key="signalID" value="456"/>
        </lane>
    </edge>
    <edge id=":20_8" function="internal">
        <lane id=":20_8_0" index="0" disallow="pedestrian tram rail_urban rail rail_electric rail_fast ship" speed="10.12" length="16.46" width="4.00" shape="198.12,59.82 195.59,64.03 191.11,66.71 184.85,67.61">
            <param key="origId" value="47_-1"/>
            <param key="signalID" value="456"/>
        </lane>
    </edge>
    <edge id=":20_6" function="internal">
        <lane id=":20_6_0" index="0" disallow="pedestrian tram rail_urban rail rail_electric rail_fast ship" speed="8.68" length="16.61" width="4.00" shape="184.85,63.61 189.36,62.96 192.59,61.03 194.52,57.82 195.16,53.32">
            <param key="origId" value="55_1"/>
            <param key="signalID" value="464 457"/>
        </lane>
    </edge>
    <edge id=":20_7" function="internal">
        <lane id=":20_7_0" index="0" disallow="pedestrian tram rail_urban rail rail_electric rail_fast ship" speed="10.12" length="23.07" width="4.00" shape="184.85,63.61 191.11,64.50 195.58,67.18 198.26,71.65 199.15,77.91">
            <param key="origId" value="62_1"/>
            <param key="signalID" value="464 458"/>
        </lane>
    </edge>
    <edge id=":242_0" function="internal">
        <lane id=":242_0_0" index="0" disallow="pedestrian tram rail_urban rail rail_electric rail_fast ship" speed="8.68" length="16.62" width="4.00" shape="195.14,127.23 194.50,122.72 192.57,119.50 189.35,117.57 184.84,116.93">
            <param key="origId" value="245_1"/>
            <param key="signalID" value="470"/>
        </lane>
    </edge>
    <edge id=":242_1" function="internal">
        <lane id=":242_1_0" index="0" disallow="pedestrian tram rail_urban rail rail_electric rail_fast ship" speed="13.89" length="24.60" width="4.00" shape="195.14,127.23 195.15,102.63">
            <param key="origId" value="277_1"/>
            <param key="signalID" value="470"/>
        </lane>
    </edge>
    <edge id=":242_2" function="internal">
        <lane id=":242_2_0" index="0" speed="13.89" length="24.60" width="4.00" shape="203.45,102.63 203.44,127.23">
            <param key="origId" value="276_-3"/>
            <param key="signalID" value="458"/>
        </lane>
        <lane id=":242_2_1" index="1" disallow="all" speed="1.39" length="24.60" width="0.30" shape="201.30,102.63 201.29,127.23">
            <param key="origId" value="276_-2"/>
            <param key="signalID" value="458"/>
        </lane>
        <lane id=":242_2_2" index="2" disallow="pedestrian tram rail_urban rail rail_electric rail_fast ship" speed="13.89" length="24.60" width="4.00" shape="199.15,102.63 199.14,127.23">
            <param key="origId" value="276_-1"/>
            <param key="signalID" value="458 468"/>
        </lane>
    </edge>
    <edge id=":242_5" function="internal">
        <lane id=":242_5_0" index="0" disallow="pedestrian tram rail_urban rail rail_electric rail_fast ship" speed="10.12" length="6.60" width="4.00" shape="199.15,102.63 198.25,108.88 198.11,109.13">
            <param key="origId" value="290_-1"/>
            <param key="signalID" value="458 468"/>
        </lane>
    </edge>
    <edge id=":242_8" function="internal">
        <lane id=":242_8_0" index="0" disallow="pedestrian tram rail_urban rail rail_electric rail_fast ship" speed="10.12" length="16.46" width="4.00" shape="198.11,109.13 195.57,113.35 191.10,116.03 184.84,116.93">
            <param key="origId" value="290_-1"/>
            <param key="signalID" value="458 468"/>
        </lane>
    </edge>
    <edge id=":242_6" function="internal">
        <lane id=":242_6_0" index="0" disallow="pedestrian tram rail_urban rail rail_electric rail_fast ship" speed="8.68" length="16.62" width="4.00" shape="184.84,112.93 189.35,112.28 192.57,110.35 194.50,107.13 195.15,102.63">
            <param key="origId" value="283_-1"/>
            <param key="signalID" value="469 473"/>
        </lane>
    </edge>
    <edge id=":242_7" function="internal">
        <lane id=":242_7_0" index="0" disallow="pedestrian tram rail_urban rail rail_electric rail_fast ship" speed="10.12" length="23.07" width="4.00" shape="184.84,112.93 191.10,113.82 195.57,116.50 198.25,120.97 199.14,127.23">
            <param key="origId" value="252_-1"/>
            <param key="signalID" value="469 473"/>
        </lane>
    </edge>
    <edge id=":298_0" function="internal">
        <lane id=":298_0_0" index="0" speed="13.89" length="24.60" width="4.00" shape="151.92,121.24 127.32,121.25">
            <param key="origId" value="341_3"/>
            <param key="signalID" value="469"/>
        </lane>
        <lane id=":298_0_1" index="1" disallow="all" speed="1.39" length="24.60" width="0.30" shape="151.92,119.09 127.32,119.10">
            <param key="origId" value="341_2"/>
            <param key="signalID" value="469"/>
        </lane>
        <lane id=":298_0_2" index="2" disallow="pedestrian tram rail_urban rail rail_electric rail_fast ship" speed="13.89" length="24.60" width="4.00" shape="151.92,116.94 127.32,116.95">
            <param key="origId" value="341_1"/>
            <param key="signalID" value="473 469"/>
        </lane>
    </edge>
    <edge id=":298_3" function="internal">
        <lane id=":298_3_0" index="0" disallow="pedestrian tram rail_urban rail rail_electric rail_fast ship" speed="10.12" length="6.60" width="4.00" shape="151.92,116.94 145.66,116.05 145.42,115.90">
            <param key="origId" value="317_1"/>
            <param key="signalID" value="473 469"/>
        </lane>
    </edge>
    <edge id=":298_8" function="internal">
        <lane id=":298_8_0" index="0" disallow="pedestrian tram rail_urban rail rail_electric rail_fast ship" speed="10.12" length="16.46" width="4.00" shape="145.42,115.90 141.19,113.37 138.51,108.90 137.61,102.64">
            <param key="origId" value="317_1"/>
            <param key="signalID" value="473 469"/>
        </lane>
    </edge>
    <edge id=":298_4" function="internal">
        <lane id=":298_4_0" index="0" disallow="pedestrian tram rail_urban rail rail_electric rail_fast ship" speed="8.68" length="16.62" width="4.00" shape="141.61,102.64 142.26,107.15 144.19,110.37 147.41,112.30 151.91,112.94">
            <param key="origId" value="322_-1"/>
            <param key="signalID" value="471 463"/>
        </lane>
    </edge>
    <edge id=":298_5" function="internal">
        <lane id=":298_5_0" index="0" disallow="pedestrian tram rail_urban rail rail_electric rail_fast ship" speed="10.12" length="23.07" width="4.00" shape="141.61,102.64 140.72,108.90 138.04,113.37 133.57,116.06 127.32,116.95">
            <param key="origId" value="308_-1"/>
            <param key="signalID" value="471 463"/>
        </lane>
    </edge>
    <edge id=":298_6" function="internal">
        <lane id=":298_6_0" index="0" disallow="pedestrian tram rail_urban rail rail_electric rail_fast ship" speed="8.68" length="16.61" width="4.00" shape="127.31,112.95 131.82,112.31 135.04,110.37 136.97,107.15 137.61,102.64">
            <param key="origId" value="301_-1"/>
            <param key="signalID" value="472 467"/>
        </lane>
    </edge>
    <edge id=":298_7" function="internal">
        <lane id=":298_7_0" index="0" disallow="pedestrian tram rail_urban rail rail_electric rail_fast ship" speed="13.89" length="24.60" width="4.00" shape="127.31,112.95 151.91,112.94">
            <param key="origId" value="342_-1"/>
            <param key="signalID" value="472 467"/>
        </lane>
    </edge>
    <edge id=":349_0" function="internal">
        <lane id=":349_0_0" index="0" disallow="pedestrian tram rail_urban rail rail_electric rail_fast ship" speed="8.68" length="16.61" width="4.00" shape="47.32,12.33 46.68,7.82 44.75,4.60 41.53,2.67 37.03,2.02">
            <param key="origId" value="385_1"/>
            <param key="signalID" value="475 459"/>
        </lane>
    </edge>
    <edge id=":349_1" function="internal">
        <lane id=":349_1_0" index="0" disallow="pedestrian tram rail_urban rail rail_electric rail_fast ship" speed="10.12" length="23.06" width="4.00" shape="47.32,12.33 48.21,6.07 50.89,1.61 55.36,-1.08 61.61,-1.97">
            <param key="origId" value="351_1"/>
            <param key="signalID" value="476 459"/>
        </lane>
    </edge>
    <edge id=":349_2" function="internal">
        <lane id=":349_2_0" index="0" disallow="pedestrian tram rail_urban rail rail_electric rail_fast ship" speed="8.68" length="16.61" width="4.00" shape="61.62,2.03 57.11,2.67 53.89,4.60 51.96,7.82 51.32,12.33">
            <param key="origId" value="358_1"/>
            <param key="signalID" value="475"/>
        </lane>
    </edge>
    <edge id=":349_3" function="internal">
        <lane id=":349_3_0" index="0" disallow="pedestrian tram rail_urban rail rail_electric rail_fast ship" speed="13.89" length="24.59" width="4.00" shape="61.62,2.03 37.03,2.02">
            <param key="origId" value="384_1"/>
            <param key="signalID" value="476"/>
        </lane>
    </edge>
    <edge id=":349_4" function="internal">
        <lane id=":349_4_0" index="0" speed="13.89" length="24.58" width="4.00" shape="37.03,-6.28 61.61,-6.27">
            <param key="origId" value="383_-3"/>
        </lane>
        <lane id=":349_4_1" index="1" disallow="all" speed="1.39" length="24.58" width="0.30" shape="37.03,-4.13 61.61,-4.12">
            <param key="origId" value="383_-2"/>
        </lane>
        <lane id=":349_4_2" index="2" disallow="pedestrian tram rail_urban rail rail_electric rail_fast ship" speed="13.89" length="24.58" width="4.00" shape="37.03,-1.98 61.61,-1.97">
            <param key="origId" value="383_-1"/>
            <param key="signalID" value="474"/>
        </lane>
    </edge>
    <edge id=":349_7" function="internal">
        <lane id=":349_7_0" index="0" disallow="pedestrian tram rail_urban rail rail_electric rail_fast ship" speed="10.12" length="6.60" width="4.00" shape="37.03,-1.98 43.28,-1.08 43.52,-0.94">
            <param key="origId" value="390_-1"/>
            <param key="signalID" value="474"/>
        </lane>
    </edge>
    <edge id=":349_8" function="internal">
        <lane id=":349_8_0" index="0" disallow="pedestrian tram rail_urban rail rail_electric rail_fast ship" speed="10.12" length="16.46" width="4.00" shape="43.52,-0.94 47.75,1.60 50.43,6.07 51.32,12.33">
            <param key="origId" value="390_-1"/>
            <param key="signalID" value="474"/>
        </lane>
    </edge>
    <edge id=":400_0" function="internal">
        <lane id=":400_0_0" index="0" speed="13.89" length="24.60" width="4.00" shape="-6.30,127.30 -6.29,102.70">
            <param key="origId" value="411_3"/>
        </lane>
        <lane id=":400_0_1" index="1" disallow="all" speed="1.39" length="24.60" width="0.30" shape="-4.15,127.30 -4.14,102.70">
            <param key="origId" value="411_2"/>
        </lane>
        <lane id=":400_0_2" index="2" disallow="pedestrian tram rail_urban rail rail_electric rail_fast ship" speed="13.89" length="24.60" width="4.00" shape="-2.00,127.30 -1.99,102.70">
            <param key="origId" value="411_1"/>
            <param key="signalID" value="478"/>
        </lane>
    </edge>
    <edge id=":400_3" function="internal">
        <lane id=":400_3_0" index="0" disallow="pedestrian tram rail_urban rail rail_electric rail_fast ship" speed="10.12" length="6.60" width="4.00" shape="-2.00,127.30 -1.10,121.05 -0.95,120.81">
            <param key="origId" value="437_1"/>
            <param key="signalID" value="477"/>
        </lane>
    </edge>
    <edge id=":400_8" function="internal">
        <lane id=":400_8_0" index="0" disallow="pedestrian tram rail_urban rail rail_electric rail_fast ship" speed="10.12" length="16.46" width="4.00" shape="-0.95,120.81 1.58,116.58 6.05,113.90 12.31,113.01">
            <param key="origId" value="437_1"/>
            <param key="signalID" value="477"/>
        </lane>
    </edge>
    <edge id=":400_4" function="internal">
        <lane id=":400_4_0" index="0" disallow="pedestrian tram rail_urban rail rail_electric rail_fast ship" speed="8.68" length="16.62" width="4.00" shape="12.31,117.01 7.80,117.65 4.58,119.58 2.65,122.80 2.00,127.31">
            <param key="origId" value="447_1"/>
            <param key="signalID" value="465 478"/>
        </lane>
    </edge>
    <edge id=":400_5" function="internal">
        <lane id=":400_5_0" index="0" disallow="pedestrian tram rail_urban rail rail_electric rail_fast ship" speed="10.12" length="23.07" width="4.00" shape="12.31,117.01 6.05,116.11 1.58,113.43 -1.10,108.96 -1.99,102.70">
            <param key="origId" value="433_1"/>
            <param key="signalID" value="465 477"/>
        </lane>
    </edge>
    <edge id=":400_6" function="internal">
        <lane id=":400_6_0" index="0" disallow="pedestrian tram rail_urban rail rail_electric rail_fast ship" speed="8.68" length="16.62" width="4.00" shape="2.01,102.71 2.65,107.21 4.58,110.43 7.80,112.36 12.31,113.01">
            <param key="origId" value="426_-1"/>
            <param key="signalID" value="479"/>
        </lane>
    </edge>
    <edge id=":400_7" function="internal">
        <lane id=":400_7_0" index="0" disallow="pedestrian tram rail_urban rail rail_electric rail_fast ship" speed="13.89" length="24.60" width="4.00" shape="2.01,102.71 2.00,127.31">
            <param key="origId" value="412_-1"/>
            <param key="signalID" value="479"/>
        </lane>
    </edge>
    <edge id=":76_0" function="internal">
        <lane id=":76_0_0" index="0" speed="13.89" length="24.60" width="4.00" shape="43.01,77.98 43.02,53.38">
            <param key="origId" value="92_3"/>
            <param key="signalID" value="466"/>
        </lane>
        <lane id=":76_0_1" index="1" disallow="all" speed="1.39" length="24.60" width="0.30" shape="45.16,77.98 45.17,53.38">
            <param key="origId" value="92_2"/>
            <param key="signalID" value="466"/>
        </lane>
        <lane id=":76_0_2" index="2" disallow="pedestrian tram rail_urban rail rail_electric rail_fast ship" speed="13.89" length="24.60" width="4.00" shape="47.31,77.98 47.32,53.38">
            <param key="origId" value="92_1"/>
            <param key="signalID" value="466 461"/>
        </lane>
    </edge>
    <edge id=":76_3" function="internal">
        <lane id=":76_3_0" index="0" disallow="pedestrian tram rail_urban rail rail_electric rail_fast ship" speed="10.12" length="6.60" width="4.00" shape="47.31,77.98 48.21,71.73 48.35,71.49">
            <param key="origId" value="131_1"/>
            <param key="signalID" value="461 466"/>
        </lane>
    </edge>
    <edge id=":76_8" function="internal">
        <lane id=":76_8_0" index="0" disallow="pedestrian tram rail_urban rail rail_electric rail_fast ship" speed="10.12" length="16.46" width="4.00" shape="48.35,71.49 50.89,67.26 55.36,64.58 61.62,63.68">
            <param key="origId" value="131_1"/>
            <param key="signalID" value="461 466"/>
        </lane>
    </edge>
    <edge id=":76_4" function="internal">
        <lane id=":76_4_0" index="0" disallow="pedestrian tram rail_urban rail rail_electric rail_fast ship" speed="8.68" length="16.62" width="4.00" shape="61.62,67.68 57.11,68.33 53.89,70.26 51.96,73.48 51.31,77.98">
            <param key="origId" value="118_-1"/>
            <param key="signalID" value="462 460"/>
        </lane>
    </edge>
    <edge id=":76_5" function="internal">
        <lane id=":76_5_0" index="0" disallow="pedestrian tram rail_urban rail rail_electric rail_fast ship" speed="10.12" length="23.07" width="4.00" shape="61.62,67.68 55.36,66.79 50.89,64.11 48.21,59.64 47.32,53.38">
            <param key="origId" value="99_-1"/>
            <param key="signalID" value="462 460"/>
        </lane>
    </edge>
    <edge id=":76_6" function="internal">
        <lane id=":76_6_0" index="0" disallow="pedestrian tram rail_urban rail rail_electric rail_fast ship" speed="8.68" length="16.62" width="4.00" shape="51.32,53.38 51.96,57.89 53.89,61.11 57.11,63.04 61.62,63.68">
            <param key="origId" value="107_-1"/>
            <param key="signalID" value="459 475"/>
        </lane>
    </edge>
    <edge id=":76_7" function="internal">
        <lane id=":76_7_0" index="0" disallow="pedestrian tram rail_urban rail rail_electric rail_fast ship" speed="13.89" length="24.60" width="4.00" shape="51.32,53.38 51.31,77.98">
            <param key="origId" value="93_-1"/>
            <param key="signalID" value="475 459"/>
        </lane>
    </edge>

    <edge id="-0" from="2.0" to="400" priority="1" type="sidewalk|shoulder|driving" shape="0.09,9.86 0.09,10.85 0.09,11.85 0.09,12.84 0.08,13.84 0.08,14.83 0.08,15.83 0.08,16.82 0.08,17.81 0.08,18.81 0.07,19.80 0.07,20.80 0.07,21.79 0.07,22.78 0.07,23.78 0.07,24.77 0.06,25.77 0.06,26.76 0.06,27.75 0.06,28.75 0.06,29.74 0.06,30.74 0.06,31.73 0.05,32.72 0.05,33.72 0.05,34.71 0.05,35.71 0.05,36.70 0.05,37.69 0.04,38.69 0.04,39.68 0.04,40.68 0.04,41.67 0.04,42.67 0.04,43.66 0.03,44.65 0.03,45.65 0.03,46.64 0.03,47.64 0.03,48.63 0.03,49.62 0.03,50.62 0.02,51.61 0.02,52.61 0.02,53.60 0.02,54.28 0.02,55.26 0.02,56.24 0.02,57.23 0.02,58.21 0.02,59.19 0.02,60.17 0.02,61.15 0.02,62.13 0.02,63.12 0.02,64.10 0.02,65.08 0.02,66.06 0.02,67.04 0.02,68.02 0.02,69.00 0.02,69.99 0.02,70.97 0.02,71.95 0.02,72.93 0.02,73.91 0.02,74.89 0.01,75.87 0.01,76.86 0.01,77.84 0.01,78.82 0.01,79.80 0.01,80.78 0.01,81.76 0.01,82.75 0.01,83.73 0.01,84.71 0.01,85.69 0.01,86.67 0.01,87.65 0.01,88.63 0.01,89.62 0.01,90.60 0.01,91.58 0.01,92.56 0.01,93.54 0.01,94.52 0.01,95.51 0.01,96.49 0.01,97.47 0.01,98.45 0.01,99.43 0.01,100.41 0.01,101.39 0.01,102.38 0.01,103.36 0.01,104.34 0.01,105.32">