<?xml version="1.0" encoding="UTF-8"?>

<!-- generated on 2025-06-17 14:38:20 by Eclipse SUMO netconvert Version 1.20.0
<configuration xmlns:xsi="http://www.w3.org/2001/XMLSchema-instance" xsi:noNamespaceSchemaLocation="http://sumo.dlr.de/xsd/netconvertConfiguration.xsd">

    <input>
        <opendrive-files value="Town06.xodr"/>
    </input>

    <output>
        <output-file value="Town06.net.xml"/>
    </output>

    <junctions>
        <no-turnarounds.except-deadend value="true"/>
    </junctions>

</configuration>
-->

<net version="1.20" junctionCornerDetail="5" rectangularLaneCut="true" limitTurnSpeed="5.50" xmlns:xsi="http://www.w3.org/2001/XMLSchema-instance" xsi:noNamespaceSchemaLocation="http://sumo.dlr.de/xsd/net_file.xsd">

    <location netOffset="358.49,404.45" convBoundary="0.00,0.00,1017.93,548.08" origBoundary="0.000000,0.000000,0.000000,0.000000" projParameter="+proj=tmerc +lat_0=0 +lon_0=0 +k=1 +x_0=0 +y_0=0 +datum=WGS84 +units=m +geoidgrids=egm96_15.gtx +vunits=m +no_defs "/>

    <type id="driving" priority="1" speed="13.89" disallow="pedestrian tram rail_urban rail rail_electric rail_fast ship container cable_car subway aircraft wheelchair scooter drone" width="3.65"/>

    <edge id=":1034_0" function="internal">
        <lane id=":1034_0_0" index="0" disallow="pedestrian tram rail_urban rail rail_electric rail_fast ship container cable_car subway aircraft wheelchair scooter drone" speed="13.89" length="44.66" width="3.50" shape="811.05,252.67 855.71,252.48"/>
        <lane id=":1034_0_1" index="1" disallow="pedestrian tram rail_urban rail rail_electric rail_fast ship container cable_car subway aircraft wheelchair scooter drone" speed="13.89" length="44.66" width="3.50" shape="811.06,256.17 855.72,255.98"/>
        <lane id=":1034_0_2" index="2" disallow="pedestrian tram rail_urban rail rail_electric rail_fast ship container cable_car subway aircraft wheelchair scooter drone" speed="13.89" length="44.66" width="3.50" shape="811.08,259.67 855.74,259.48"/>
        <lane id=":1034_0_3" index="3" disallow="pedestrian tram rail_urban rail rail_electric rail_fast ship container cable_car subway aircraft wheelchair scooter drone" speed="13.89" length="44.66" width="3.50" shape="811.09,263.17 855.75,262.98"/>
        <lane id=":1034_0_4" index="4" disallow="pedestrian tram rail_urban rail rail_electric rail_fast ship container cable_car subway aircraft wheelchair scooter drone" speed="13.89" length="44.66" width="3.50" shape="811.11,266.67 855.77,266.48"/>
    </edge>
    <edge id=":1034_5" function="internal">
        <lane id=":1034_5_0" index="0" disallow="pedestrian tram rail_urban rail rail_electric rail_fast ship container cable_car subway aircraft wheelchair scooter drone" speed="13.89" length="42.68" width="3.50" shape="811.11,266.67 823.12,267.49 833.66,270.06 842.74,274.37 850.36,280.44"/>
    </edge>
    <edge id=":1050_0" function="internal">
        <lane id=":1050_0_0" index="0" disallow="pedestrian tram rail_urban rail rail_electric rail_fast ship container cable_car subway aircraft wheelchair scooter drone" speed="13.89" length="32.53" width="3.50" shape="881.32,339.12 886.35,344.86 892.74,348.96 900.50,351.42 909.63,352.24"/>
    </edge>
    <edge id=":1050_1" function="internal">
        <lane id=":1050_1_0" index="0" disallow="pedestrian tram rail_urban rail rail_electric rail_fast ship container cable_car subway aircraft wheelchair scooter drone" speed="13.89" length="70.79" width="3.50" shape="838.84,352.21 909.63,352.24"/>
        <lane id=":1050_1_1" index="1" disallow="pedestrian tram rail_urban rail rail_electric rail_fast ship container cable_car subway aircraft wheelchair scooter drone" speed="13.89" length="70.79" width="3.50" shape="838.84,355.71 909.63,355.74"/>
        <lane id=":1050_1_2" index="2" disallow="pedestrian tram rail_urban rail rail_electric rail_fast ship container cable_car subway aircraft wheelchair scooter drone" speed="13.89" length="70.79" width="3.50" shape="838.84,359.21 909.63,359.24"/>
        <lane id=":1050_1_3" index="3" disallow="pedestrian tram rail_urban rail rail_electric rail_fast ship container cable_car subway aircraft wheelchair scooter drone" speed="13.89" length="70.79" width="3.50" shape="838.83,362.71 909.62,362.74"/>
        <lane id=":1050_1_4" index="4" disallow="pedestrian tram rail_urban rail rail_electric rail_fast ship container cable_car subway aircraft wheelchair scooter drone" speed="13.89" length="70.79" width="3.50" shape="838.83,366.21 909.62,366.24"/>
    </edge>
    <edge id=":1050_6" function="internal">
        <lane id=":1050_6_0" index="0" disallow="pedestrian tram rail_urban rail rail_electric rail_fast ship container cable_car subway aircraft wheelchair scooter drone" speed="13.89" length="37.64" width="3.50" shape="838.83,366.21 849.03,367.07 858.06,369.67 865.93,373.98 872.64,380.02"/>
    </edge>
    <edge id=":1128_0" function="internal">
        <lane id=":1128_0_0" index="0" disallow="pedestrian tram rail_urban rail rail_electric rail_fast ship container cable_car subway aircraft wheelchair scooter drone" speed="13.89" length="42.10" width="3.50" shape="275.74,269.00 233.64,269.10"/>
        <lane id=":1128_0_1" index="1" disallow="pedestrian tram rail_urban rail rail_electric rail_fast ship container cable_car subway aircraft wheelchair scooter drone" speed="13.89" length="42.10" width="3.50" shape="275.73,265.50 233.63,265.60"/>
        <lane id=":1128_0_2" index="2" disallow="pedestrian tram rail_urban rail rail_electric rail_fast ship container cable_car subway aircraft wheelchair scooter drone" speed="13.89" length="42.10" width="3.50" shape="275.73,262.00 233.63,262.10"/>
        <lane id=":1128_0_3" index="3" disallow="pedestrian tram rail_urban rail rail_electric rail_fast ship container cable_car subway aircraft wheelchair scooter drone" speed="13.89" length="42.10" width="3.50" shape="275.72,258.50 233.62,258.60"/>
    </edge>
    <edge id=":1128_4" function="internal">
        <lane id=":1128_4_0" index="0" disallow="pedestrian tram rail_urban rail rail_electric rail_fast ship container cable_car subway aircraft wheelchair scooter drone" speed="13.89" length="39.37" width="3.50" shape="270.87,244.27 266.18,247.34 258.10,250.90 247.09,253.85 233.61,255.10"/>
    </edge>
    <edge id=":1146_0" function="internal">
        <lane id=":1146_0_0" index="0" disallow="pedestrian tram rail_urban rail rail_electric rail_fast ship container cable_car subway aircraft wheelchair scooter drone" speed="13.89" length="69.12" width="3.50" shape="544.17,239.46 552.97,242.78 570.08,247.50 591.07,251.71 611.55,253.48"/>
    </edge>
    <edge id=":1146_1" function="internal">
        <lane id=":1146_1_0" index="0" disallow="pedestrian tram rail_urban rail rail_electric rail_fast ship container cable_car subway aircraft wheelchair scooter drone" speed="13.89" length="71.30" width="3.50" shape="540.25,253.78 611.55,253.48"/>
        <lane id=":1146_1_1" index="1" disallow="pedestrian tram rail_urban rail rail_electric rail_fast ship container cable_car subway aircraft wheelchair scooter drone" speed="13.89" length="71.30" width="3.50" shape="540.27,257.28 611.57,256.98"/>
        <lane id=":1146_1_2" index="2" disallow="pedestrian tram rail_urban rail rail_electric rail_fast ship container cable_car subway aircraft wheelchair scooter drone" speed="13.89" length="71.30" width="3.50" shape="540.28,260.78 611.58,260.48"/>
        <lane id=":1146_1_3" index="3" disallow="pedestrian tram rail_urban rail rail_electric rail_fast ship container cable_car subway aircraft wheelchair scooter drone" speed="13.89" length="71.30" width="3.50" shape="540.29,264.28 611.59,263.98"/>
        <lane id=":1146_1_4" index="4" disallow="pedestrian tram rail_urban rail rail_electric rail_fast ship container cable_car subway aircraft wheelchair scooter drone" speed="13.89" length="71.30" width="3.50" shape="540.31,267.78 611.61,267.48"/>
    </edge>
    <edge id=":1162_0" function="internal">
        <lane id=":1162_0_0" index="0" disallow="pedestrian tram rail_urban rail rail_electric rail_fast ship container cable_car subway aircraft wheelchair scooter drone" speed="13.89" length="29.23" width="3.50" shape="512.91,427.95 483.68,427.84">
            <param key="signalID" value="1238"/>
        </lane>
        <lane id=":1162_0_1" index="1" disallow="pedestrian tram rail_urban rail rail_electric rail_fast ship container cable_car subway aircraft wheelchair scooter drone" speed="13.89" length="29.23" width="3.50" shape="512.92,424.45 483.69,424.34">
            <param key="signalID" value="1238"/>
        </lane>
        <lane id=":1162_0_2" index="2" disallow="pedestrian tram rail_urban rail rail_electric rail_fast ship container cable_car subway aircraft wheelchair scooter drone" speed="13.89" length="29.23" width="3.50" shape="512.94,420.95 483.71,420.84">
            <param key="signalID" value="1238"/>
        </lane>
        <lane id=":1162_0_3" index="3" disallow="pedestrian tram rail_urban rail rail_electric rail_fast ship container cable_car subway aircraft wheelchair scooter drone" speed="13.89" length="29.23" width="3.50" shape="512.95,417.45 483.72,417.34">
            <param key="signalID" value="1238"/>
        </lane>
    </edge>
    <edge id=":1162_4" function="internal">
        <lane id=":1162_4_0" index="0" disallow="pedestrian tram rail_urban rail rail_electric rail_fast ship container cable_car subway aircraft wheelchair scooter drone" speed="13.31" length="36.05" width="3.50" shape="503.21,401.05 500.35,412.79 496.14,421.17 490.59,426.19 483.68,427.84">
            <param key="signalID" value="1239"/>
        </lane>
        <lane id=":1162_4_1" index="1" disallow="pedestrian tram rail_urban rail rail_electric rail_fast ship container cable_car subway aircraft wheelchair scooter drone" speed="12.80" length="33.30" width="3.50" shape="503.21,401.05 500.56,411.26 496.43,418.55 490.81,422.91 483.69,424.34">
            <param key="signalID" value="1239"/>
        </lane>
        <lane id=":1162_4_2" index="2" disallow="pedestrian tram rail_urban rail rail_electric rail_fast ship container cable_car subway aircraft wheelchair scooter drone" speed="12.30" length="30.63" width="3.50" shape="503.21,401.05 500.78,409.73 496.72,415.92 491.03,419.63 483.71,420.84">
            <param key="signalID" value="1239"/>
        </lane>
        <lane id=":1162_4_3" index="3" disallow="pedestrian tram rail_urban rail rail_electric rail_fast ship container cable_car subway aircraft wheelchair scooter drone" speed="11.28" length="25.62" width="3.50" shape="499.76,400.48 497.72,407.88 494.37,413.15 489.70,416.31 483.72,417.34">
            <param key="signalID" value="1239"/>
        </lane>
    </edge>
    <edge id=":1187_0" function="internal">
        <lane id=":1187_0_0" index="0" disallow="pedestrian tram rail_urban rail rail_electric rail_fast ship container cable_car subway aircraft wheelchair scooter drone" speed="13.89" length="55.65" width="3.50" shape="431.36,152.90 487.01,152.88"/>
        <lane id=":1187_0_1" index="1" disallow="pedestrian tram rail_urban rail rail_electric rail_fast ship container cable_car subway aircraft wheelchair scooter drone" speed="13.89" length="55.65" width="3.50" shape="431.36,156.40 487.01,156.38"/>
        <lane id=":1187_0_2" index="2" disallow="pedestrian tram rail_urban rail rail_electric rail_fast ship container cable_car subway aircraft wheelchair scooter drone" speed="13.89" length="55.65" width="3.50" shape="431.36,159.90 487.01,159.88"/>
        <lane id=":1187_0_3" index="3" disallow="pedestrian tram rail_urban rail rail_electric rail_fast ship container cable_car subway aircraft wheelchair scooter drone" speed="13.89" length="55.65" width="3.50" shape="431.36,163.40 487.01,163.38"/>
        <lane id=":1187_0_4" index="4" disallow="pedestrian tram rail_urban rail rail_electric rail_fast ship container cable_car subway aircraft wheelchair scooter drone" speed="13.89" length="55.65" width="3.50" shape="431.36,166.90 487.01,166.88"/>
    </edge>
    <edge id=":1187_5" function="internal">
        <lane id=":1187_5_0" index="0" disallow="pedestrian tram rail_urban rail rail_electric rail_fast ship container cable_car subway aircraft wheelchair scooter drone" speed="13.89" length="53.61" width="3.50" shape="431.36,166.90 449.33,168.69 464.80,172.86 476.33,177.58 482.50,181.04"/>
    </edge>
    <edge id=":1203_0" function="internal">
        <lane id=":1203_0_0" index="0" disallow="pedestrian tram rail_urban rail rail_electric rail_fast ship container cable_car subway aircraft wheelchair scooter drone" speed="13.89" length="35.78" width="3.50" shape="886.09,428.84 850.31,428.91"/>
        <lane id=":1203_0_1" index="1" disallow="pedestrian tram rail_urban rail rail_electric rail_fast ship container cable_car subway aircraft wheelchair scooter drone" speed="13.89" length="35.78" width="3.50" shape="886.08,425.34 850.30,425.41"/>
        <lane id=":1203_0_2" index="2" disallow="pedestrian tram rail_urban rail rail_electric rail_fast ship container cable_car subway aircraft wheelchair scooter drone" speed="13.89" length="35.78" width="3.50" shape="886.08,421.84 850.30,421.91"/>
        <lane id=":1203_0_3" index="3" disallow="pedestrian tram rail_urban rail rail_electric rail_fast ship container cable_car subway aircraft wheelchair scooter drone" speed="13.89" length="35.78" width="3.50" shape="886.07,418.34 850.29,418.41"/>
        <lane id=":1203_0_4" index="4" disallow="pedestrian tram rail_urban rail rail_electric rail_fast ship container cable_car subway aircraft wheelchair scooter drone" speed="13.89" length="35.78" width="3.50" shape="886.06,414.84 850.28,414.92"/>
    </edge>
    <edge id=":1203_5" function="internal">
        <lane id=":1203_5_0" index="0" disallow="pedestrian tram rail_urban rail rail_electric rail_fast ship container cable_car subway aircraft wheelchair scooter drone" speed="13.77" length="32.81" width="3.50" shape="877.35,403.99 873.81,410.28 868.12,414.78 860.28,417.50 850.29,418.41"/>
        <lane id=":1203_5_1" index="1" disallow="pedestrian tram rail_urban rail rail_electric rail_fast ship container cable_car subway aircraft wheelchair scooter drone" speed="13.37" length="30.90" width="3.50" shape="877.35,403.99 874.26,408.75 868.72,412.16 860.73,414.21 850.28,414.92"/>
    </edge>
    <edge id=":15#1_0" function="internal">
        <lane id=":15#1_0_0" index="0" disallow="pedestrian tram rail_urban rail rail_electric rail_fast ship container cable_car subway aircraft wheelchair scooter drone" speed="13.89" length="3.80" width="3.50" shape="401.64,352.04 405.05,350.04"/>
        <lane id=":15#1_0_1" index="1" disallow="pedestrian tram rail_urban rail rail_electric rail_fast ship container cable_car subway aircraft wheelchair scooter drone" speed="13.89" length="3.80" width="3.50" shape="401.08,355.49 404.47,353.49"/>
        <lane id=":15#1_0_2" index="2" disallow="pedestrian tram rail_urban rail rail_electric rail_fast ship container cable_car subway aircraft wheelchair scooter drone" speed="13.89" length="3.80" width="3.50" shape="400.52,358.95 403.89,356.95"/>
        <lane id=":15#1_0_3" index="3" disallow="pedestrian tram rail_urban rail rail_electric rail_fast ship container cable_car subway aircraft wheelchair scooter drone" speed="13.89" length="3.80" width="3.50" shape="399.95,362.40 403.31,360.40"/>
        <lane id=":15#1_0_4" index="4" allow="emergency authority" speed="13.89" length="3.80" width="4.18" shape="399.54,364.95 400.47,364.90 401.10,364.56 401.73,364.23 402.67,364.19"/>
    </edge>
    <edge id=":15.14_0" function="internal">
        <lane id=":15.14_0_0" index="0" disallow="pedestrian tram rail_urban rail rail_electric rail_fast ship container cable_car subway aircraft wheelchair scooter drone" speed="13.89" length="8.48" width="3.50" shape="380.83,352.07 383.39,351.81 385.11,351.24 386.83,350.72 389.38,350.57"/>
        <lane id=":15.14_0_1" index="1" disallow="pedestrian tram rail_urban rail rail_electric rail_fast ship container cable_car subway aircraft wheelchair scooter drone" speed="13.89" length="8.48" width="3.50" shape="380.83,355.57 383.33,355.31 385.02,354.74 386.70,354.21 389.20,354.07"/>
        <lane id=":15.14_0_2" index="2" disallow="pedestrian tram rail_urban rail rail_electric rail_fast ship container cable_car subway aircraft wheelchair scooter drone" speed="13.89" length="8.48" width="3.50" shape="380.82,359.07 383.28,358.81 384.93,358.24 386.57,357.71 389.03,357.56"/>
        <lane id=":15.14_0_3" index="3" disallow="pedestrian tram rail_urban rail rail_electric rail_fast ship container cable_car subway aircraft wheelchair scooter drone" speed="13.89" length="8.48" width="3.50" shape="380.82,362.57 383.23,362.31 384.84,361.74 386.45,361.21 388.85,361.06"/>
    </edge>
    <edge id=":22#1_0" function="internal">
        <lane id=":22#1_0_0" index="0" disallow="pedestrian tram rail_urban rail rail_electric rail_fast ship container cable_car subway aircraft wheelchair scooter drone" speed="13.89" length="3.47" width="3.50" shape="311.05,269.03 310.07,269.21 309.48,269.74 308.88,270.28 307.91,270.46"/>
        <lane id=":22#1_0_1" index="1" disallow="pedestrian tram rail_urban rail rail_electric rail_fast ship container cable_car subway aircraft wheelchair scooter drone" speed="13.89" length="3.47" width="3.50" shape="311.35,265.54 310.38,265.72 309.78,266.26 309.19,266.79 308.21,266.98"/>
        <lane id=":22#1_0_2" index="2" disallow="pedestrian tram rail_urban rail rail_electric rail_fast ship container cable_car subway aircraft wheelchair scooter drone" speed="13.89" length="3.47" width="3.50" shape="311.65,262.05 310.68,262.24 310.08,262.77 309.49,263.31 308.51,263.49"/>
        <lane id=":22#1_0_3" index="3" allow="emergency authority" speed="13.89" length="3.47" width="3.50" shape="311.88,259.41 310.96,259.47 310.35,259.71 309.73,259.95 308.82,260.00"/>
    </edge>
    <edge id=":23.22_0" function="internal">
        <lane id=":23.22_0_0" index="0" disallow="pedestrian tram rail_urban rail rail_electric rail_fast ship container cable_car subway aircraft wheelchair scooter drone" speed="13.89" length="7.92" width="3.50" shape="334.07,268.87 331.67,269.15 330.06,269.73 328.45,270.25 326.05,270.33"/>
        <lane id=":23.22_0_1" index="1" disallow="pedestrian tram rail_urban rail rail_electric rail_fast ship container cable_car subway aircraft wheelchair scooter drone" speed="13.89" length="7.92" width="3.50" shape="334.06,265.37 331.75,265.65 330.20,266.23 328.66,266.75 326.36,266.84"/>
        <lane id=":23.22_0_2" index="2" disallow="pedestrian tram rail_urban rail rail_electric rail_fast ship container cable_car subway aircraft wheelchair scooter drone" speed="13.89" length="7.92" width="3.50" shape="334.06,261.87 331.84,262.15 330.35,262.74 328.87,263.26 326.66,263.35"/>
    </edge>
    <edge id=":25.16_0" function="internal">
        <lane id=":25.16_0_0" index="0" disallow="pedestrian tram rail_urban rail rail_electric rail_fast ship container cable_car subway aircraft wheelchair scooter drone" speed="13.89" length="0.30" width="3.50" shape="558.41,352.24 558.70,352.24"/>
        <lane id=":25.16_0_1" index="1" disallow="pedestrian tram rail_urban rail rail_electric rail_fast ship container cable_car subway aircraft wheelchair scooter drone" speed="13.89" length="0.30" width="3.50" shape="558.41,355.74 558.70,355.74"/>
        <lane id=":25.16_0_2" index="2" disallow="pedestrian tram rail_urban rail rail_electric rail_fast ship container cable_car subway aircraft wheelchair scooter drone" speed="13.89" length="0.30" width="3.50" shape="558.40,359.24 558.71,359.24"/>
        <lane id=":25.16_0_3" index="3" disallow="pedestrian tram rail_urban rail rail_electric rail_fast ship container cable_car subway aircraft wheelchair scooter drone" speed="13.89" length="0.30" width="3.50" shape="558.40,362.74 558.71,362.74"/>
    </edge>
    <edge id=":268_0" function="internal">
        <lane id=":268_0_0" index="0" disallow="pedestrian tram rail_urban rail rail_electric rail_fast ship container cable_car subway aircraft wheelchair scooter drone" speed="13.89" length="41.00" width="3.50" shape="1031.39,338.98 1031.28,351.71 1030.58,360.44 1028.76,369.01 1025.28,381.26"/>
        <lane id=":268_0_1" index="1" disallow="pedestrian tram rail_urban rail rail_electric rail_fast ship container cable_car subway aircraft wheelchair scooter drone" speed="13.89" length="41.00" width="3.50" shape="1027.89,338.98 1027.78,351.42 1027.10,359.94 1025.32,368.31 1021.92,380.28"/>
        <lane id=":268_0_2" index="2" disallow="pedestrian tram rail_urban rail rail_electric rail_fast ship container cable_car subway aircraft wheelchair scooter drone" speed="13.89" length="41.00" width="3.50" shape="1024.39,338.98 1024.28,351.13 1023.62,359.45 1021.88,367.62 1018.56,379.30"/>
        <lane id=":268_0_3" index="3" disallow="pedestrian tram rail_urban rail rail_electric rail_fast ship container cable_car subway aircraft wheelchair scooter drone" speed="13.89" length="41.00" width="3.50" shape="1020.89,338.98 1020.79,350.83 1020.13,358.95 1018.44,366.92 1015.20,378.32"/>
        <lane id=":268_0_4" index="4" disallow="pedestrian tram rail_urban rail rail_electric rail_fast ship container cable_car subway aircraft wheelchair scooter drone" speed="13.89" length="41.00" width="3.50" shape="1017.39,338.98 1017.29,350.54 1016.65,358.45 1015.00,366.23 1011.84,377.34"/>
    </edge>
    <edge id=":268_5" function="internal">
        <lane id=":268_5_0" index="0" disallow="pedestrian tram rail_urban rail rail_electric rail_fast ship container cable_car subway aircraft wheelchair scooter drone" speed="12.43" length="43.37" width="3.50" shape="1005.39,352.29 1017.50,354.18 1024.71,359.75 1027.22,368.83 1025.28,381.26">
            <param key="signalID" value="1224"/>
        </lane>
        <lane id=":268_5_1" index="1" disallow="pedestrian tram rail_urban rail rail_electric rail_fast ship container cable_car subway aircraft wheelchair scooter drone" speed="11.43" length="36.47" width="3.50" shape="1005.39,355.79 1015.54,357.40 1021.53,362.13 1023.58,369.81 1021.92,380.28">
            <param key="signalID" value="1224"/>
        </lane>
        <lane id=":268_5_2" index="2" disallow="pedestrian tram rail_urban rail rail_electric rail_fast ship container cable_car subway aircraft wheelchair scooter drone" speed="10.34" length="29.57" width="3.50" shape="1005.39,359.29 1013.58,360.62 1018.36,364.51 1019.94,370.79 1018.56,379.30">
            <param key="signalID" value="1224"/>
        </lane>
        <lane id=":268_5_3" index="3" disallow="pedestrian tram rail_urban rail rail_electric rail_fast ship container cable_car subway aircraft wheelchair scooter drone" speed="9.11" length="22.63" width="3.50" shape="1005.38,362.79 1011.38,363.76 1015.01,366.68 1016.28,371.53 1015.20,378.32">
            <param key="signalID" value="1224"/>
        </lane>
        <lane id=":268_5_4" index="4" disallow="pedestrian tram rail_urban rail rail_electric rail_fast ship container cable_car subway aircraft wheelchair scooter drone" speed="7.69" length="15.73" width="3.50" shape="1005.38,366.29 1009.42,366.98 1011.84,369.05 1012.64,372.51 1011.84,377.34">
            <param key="signalID" value="1224"/>
        </lane>
    </edge>
    <edge id=":29#1_0" function="internal">
        <lane id=":29#1_0_0" index="0" disallow="pedestrian tram rail_urban rail rail_electric rail_fast ship container cable_car subway aircraft wheelchair scooter drone" speed="13.89" length="3.50" width="3.50" shape="664.72,352.04 665.70,351.88 666.30,351.36 666.91,350.84 667.89,350.68"/>
        <lane id=":29#1_0_1" index="1" disallow="pedestrian tram rail_urban rail rail_electric rail_fast ship container cable_car subway aircraft wheelchair scooter drone" speed="13.89" length="3.50" width="3.50" shape="664.33,355.52 665.31,355.36 665.91,354.84 666.52,354.32 667.50,354.16"/>
        <lane id=":29#1_0_2" index="2" disallow="pedestrian tram rail_urban rail rail_electric rail_fast ship container cable_car subway aircraft wheelchair scooter drone" speed="13.89" length="3.50" width="3.50" shape="663.94,359.00 664.92,358.84 665.52,358.32 666.13,357.80 667.11,357.64"/>
        <lane id=":29#1_0_3" index="3" disallow="pedestrian tram rail_urban rail rail_electric rail_fast ship container cable_car subway aircraft wheelchair scooter drone" speed="13.89" length="3.50" width="3.50" shape="663.55,362.48 664.52,362.32 665.13,361.80 665.74,361.27 666.72,361.11"/>
        <lane id=":29#1_0_4" index="4" allow="emergency authority" speed="13.89" length="3.50" width="3.50" shape="663.25,365.11 664.17,365.08 664.79,364.85 665.41,364.62 666.33,364.59"/>
    </edge>
    <edge id=":29.28_0" function="internal">
        <lane id=":29.28_0_0" index="0" disallow="pedestrian tram rail_urban rail rail_electric rail_fast ship container cable_car subway aircraft wheelchair scooter drone" speed="13.89" length="8.41" width="3.50" shape="636.89,352.11 639.38,351.83 641.05,351.21 642.71,350.62 645.20,350.40"/>
        <lane id=":29.28_0_1" index="1" disallow="pedestrian tram rail_urban rail rail_electric rail_fast ship container cable_car subway aircraft wheelchair scooter drone" speed="13.89" length="8.41" width="3.50" shape="636.89,355.61 639.35,355.33 641.00,354.71 642.64,354.12 645.10,353.90"/>
        <lane id=":29.28_0_2" index="2" disallow="pedestrian tram rail_urban rail rail_electric rail_fast ship container cable_car subway aircraft wheelchair scooter drone" speed="13.89" length="8.41" width="3.50" shape="636.89,359.11 639.33,358.83 640.95,358.21 642.57,357.62 645.01,357.40"/>
        <lane id=":29.28_0_3" index="3" disallow="pedestrian tram rail_urban rail rail_electric rail_fast ship container cable_car subway aircraft wheelchair scooter drone" speed="13.89" length="8.41" width="3.50" shape="636.89,362.61 639.30,362.32 640.90,361.69 642.51,361.09 644.91,360.89"/>
    </edge>
    <edge id=":3.24_0" function="internal">
        <lane id=":3.24_0_0" index="0" disallow="pedestrian tram rail_urban rail rail_electric rail_fast ship container cable_car subway aircraft wheelchair scooter drone" speed="13.89" length="0.10" width="3.50" shape="869.40,315.00 869.40,315.00"/>
    </edge>
    <edge id=":332_0" function="internal">
        <lane id=":332_0_0" index="0" disallow="pedestrian tram rail_urban rail rail_electric rail_fast ship container cable_car subway aircraft wheelchair scooter drone" speed="13.89" length="48.23" width="3.50" shape="1030.29,235.80 1030.81,284.02"/>
        <lane id=":332_0_1" index="1" disallow="pedestrian tram rail_urban rail rail_electric rail_fast ship container cable_car subway aircraft wheelchair scooter drone" speed="13.89" length="48.23" width="3.50" shape="1026.79,235.83 1027.31,284.06"/>
        <lane id=":332_0_2" index="2" disallow="pedestrian tram rail_urban rail rail_electric rail_fast ship container cable_car subway aircraft wheelchair scooter drone" speed="13.89" length="48.23" width="3.50" shape="1023.29,235.87 1023.81,284.10"/>
        <lane id=":332_0_3" index="3" disallow="pedestrian tram rail_urban rail rail_electric rail_fast ship container cable_car subway aircraft wheelchair scooter drone" speed="13.89" length="48.23" width="3.50" shape="1019.79,235.91 1020.31,284.14"/>
        <lane id=":332_0_4" index="4" disallow="pedestrian tram rail_urban rail rail_electric rail_fast ship container cable_car subway aircraft wheelchair scooter drone" speed="13.89" length="48.23" width="3.50" shape="1016.29,235.95 1016.82,284.17"/>
    </edge>
    <edge id=":332_5" function="internal">
        <lane id=":332_5_0" index="0" disallow="pedestrian tram rail_urban rail rail_electric rail_fast ship container cable_car subway aircraft wheelchair scooter drone" speed="13.89" length="50.87" width="3.50" shape="999.77,251.89 1013.22,253.85 1022.88,259.86 1028.74,269.92 1030.81,284.02">
            <param key="signalID" value="1226"/>
        </lane>
        <lane id=":332_5_1" index="1" disallow="pedestrian tram rail_urban rail rail_electric rail_fast ship container cable_car subway aircraft wheelchair scooter drone" speed="13.89" length="45.25" width="3.50" shape="999.78,255.39 1011.71,257.14 1020.28,262.50 1025.48,271.48 1027.31,284.06">
            <param key="signalID" value="1226"/>
        </lane>
        <lane id=":332_5_2" index="2" disallow="pedestrian tram rail_urban rail rail_electric rail_fast ship container cable_car subway aircraft wheelchair scooter drone" speed="13.12" length="39.63" width="3.50" shape="999.80,258.89 1010.20,260.43 1017.67,265.15 1022.21,273.03 1023.81,284.10">
            <param key="signalID" value="1226"/>
        </lane>
        <lane id=":332_5_3" index="3" disallow="pedestrian tram rail_urban rail rail_electric rail_fast ship container cable_car subway aircraft wheelchair scooter drone" speed="12.19" length="34.02" width="3.50" shape="999.81,262.39 1008.69,263.72 1015.07,267.79 1018.94,274.59 1020.31,284.14">
            <param key="signalID" value="1226"/>
        </lane>
        <lane id=":332_5_4" index="4" disallow="pedestrian tram rail_urban rail rail_electric rail_fast ship container cable_car subway aircraft wheelchair scooter drone" speed="11.17" length="28.40" width="3.50" shape="999.83,265.89 1007.18,267.01 1012.47,270.43 1015.68,276.15 1016.82,284.17">
            <param key="signalID" value="1226"/>
        </lane>
    </edge>
    <edge id=":34.0_0" function="internal">
        <lane id=":34.0_0_0" index="0" disallow="pedestrian tram rail_urban rail rail_electric rail_fast ship container cable_car subway aircraft wheelchair scooter drone" speed="13.89" length="0.10" width="3.50" shape="369.74,242.14 369.74,242.14"/>