<?xml version="1.0" encoding="UTF-8"?>

<!-- generated on 2025-06-17 14:37:49 by Eclipse SUMO netconvert Version 1.20.0
<configuration xmlns:xsi="http://www.w3.org/2001/XMLSchema-instance" xsi:noNamespaceSchemaLocation="http://sumo.dlr.de/xsd/netconvertConfiguration.xsd">

    <input>
        <opendrive-files value="Town03.xodr"/>
    </input>

    <output>
        <output-file value="Town03.net.xml"/>
    </output>

    <junctions>
        <no-turnarounds.except-deadend value="true"/>
    </junctions>

</configuration>
-->

<net version="1.20" junctionCornerDetail="5" rectangularLaneCut="true" limitTurnSpeed="5.50" xmlns:xsi="http://www.w3.org/2001/XMLSchema-instance" xsi:noNamespaceSchemaLocation="http://sumo.dlr.de/xsd/net_file.xsd">

    <location netOffset="153.31,198.86" convBoundary="0.00,0.00,393.56,402.89" origBoundary="0.000000,0.000000,0.000000,0.000000" projParameter="+proj=tmerc +lat_0=0 +lon_0=0 +k=1 +x_0=0 +y_0=0 +datum=WGS84 +units=m +geoidgrids=egm96_15.gtx +vunits=m +no_defs "/>

    <type id="driving" priority="1" speed="13.89" disallow="pedestrian tram rail_urban rail rail_electric rail_fast ship container cable_car subway aircraft wheelchair scooter drone" width="3.65"/>

    <edge id=":1019_0" function="internal">
        <lane id=":1019_0_0" index="0" disallow="pedestrian tram rail_urban rail rail_electric rail_fast ship container cable_car subway aircraft wheelchair scooter drone" speed="13.89" length="22.61" width="3.50" shape="159.10,19.67 158.96,42.28"/>
        <lane id=":1019_0_1" index="1" disallow="pedestrian tram rail_urban rail rail_electric rail_fast ship container cable_car subway aircraft wheelchair scooter drone" speed="13.89" length="22.61" width="3.50" shape="155.60,19.65 155.46,42.26"/>
    </edge>
    <edge id=":1019_2" function="internal">
        <lane id=":1019_2_0" index="0" disallow="pedestrian tram rail_urban rail rail_electric rail_fast ship container cable_car subway aircraft wheelchair scooter drone" speed="11.07" length="20.75" width="3.50" shape="143.96,42.19 143.16,37.70 140.72,33.81 136.62,30.53 130.87,27.85"/>
    </edge>
    <edge id=":1019_3" function="internal">
        <lane id=":1019_3_0" index="0" disallow="pedestrian tram rail_urban rail rail_electric rail_fast ship container cable_car subway aircraft wheelchair scooter drone" speed="13.89" length="22.61" width="3.50" shape="143.96,42.19 144.10,19.58"/>
        <lane id=":1019_3_1" index="1" disallow="pedestrian tram rail_urban rail rail_electric rail_fast ship container cable_car subway aircraft wheelchair scooter drone" speed="13.89" length="22.61" width="3.50" shape="147.46,42.21 147.60,19.60"/>
    </edge>
    <edge id=":103_0" function="internal">
        <lane id=":103_0_0" index="0" disallow="pedestrian tram rail_urban rail rail_electric rail_fast ship container cable_car subway aircraft wheelchair scooter drone" speed="10.03" length="22.96" width="3.50" shape="174.50,68.07 167.63,68.77 162.70,71.10 159.73,75.04 158.72,80.61">
            <param key="signalID" value="1997"/>
        </lane>
    </edge>
    <edge id=":103_1" function="internal">
        <lane id=":103_1_0" index="0" disallow="pedestrian tram rail_urban rail rail_electric rail_fast ship container cable_car subway aircraft wheelchair scooter drone" speed="13.89" length="40.19" width="3.50" shape="174.50,68.07 134.32,67.97">
            <param key="signalID" value="1997"/>
        </lane>
    </edge>
    <edge id=":103_2" function="internal">
        <lane id=":103_2_0" index="0" disallow="pedestrian tram rail_urban rail rail_electric rail_fast ship container cable_car subway aircraft wheelchair scooter drone" speed="12.67" length="8.11" width="3.50" shape="174.50,68.07 166.45,67.20">
            <param key="signalID" value="1995"/>
        </lane>
    </edge>
    <edge id=":103_14" function="internal">
        <lane id=":103_14_0" index="0" disallow="pedestrian tram rail_urban rail rail_electric rail_fast ship container cable_car subway aircraft wheelchair scooter drone" speed="12.67" length="28.72" width="3.50" shape="166.45,67.20 162.61,66.78 154.13,63.29 149.06,57.59 147.41,49.70">
            <param key="signalID" value="1995"/>
        </lane>
    </edge>
    <edge id=":103_3" function="internal">
        <lane id=":103_3_0" index="0" disallow="pedestrian tram rail_urban rail rail_electric rail_fast ship container cable_car subway aircraft wheelchair scooter drone" speed="10.41" length="24.51" width="3.50" shape="158.91,49.77 159.85,56.16 162.77,60.76 167.67,63.57 174.55,64.57">
            <param key="signalID" value="1996"/>
        </lane>
    </edge>
    <edge id=":103_4" function="internal">
        <lane id=":103_4_0" index="0" disallow="pedestrian tram rail_urban rail rail_electric rail_fast ship container cable_car subway aircraft wheelchair scooter drone" speed="13.89" length="30.84" width="3.50" shape="158.91,49.77 158.72,80.61">
            <param key="signalID" value="1995"/>
        </lane>
        <lane id=":103_4_1" index="1" disallow="pedestrian tram rail_urban rail rail_electric rail_fast ship container cable_car subway aircraft wheelchair scooter drone" speed="13.89" length="30.84" width="3.50" shape="155.41,49.75 155.22,80.59">
            <param key="signalID" value="1995"/>
        </lane>
    </edge>
    <edge id=":103_6" function="internal">
        <lane id=":103_6_0" index="0" disallow="pedestrian tram rail_urban rail rail_electric rail_fast ship container cable_car subway aircraft wheelchair scooter drone" speed="11.71" length="15.06" width="3.50" shape="155.41,49.75 154.05,57.90 150.19,63.49"/>
    </edge>
    <edge id=":103_15" function="internal">
        <lane id=":103_15_0" index="0" disallow="pedestrian tram rail_urban rail rail_electric rail_fast ship container cable_car subway aircraft wheelchair scooter drone" speed="11.71" length="16.81" width="3.50" shape="150.19,63.49 150.08,63.65 143.50,67.01 134.32,67.97"/>
    </edge>
    <edge id=":103_7" function="internal">
        <lane id=":103_7_0" index="0" disallow="pedestrian tram rail_urban rail rail_electric rail_fast ship container cable_car subway aircraft wheelchair scooter drone" speed="9.33" length="19.82" width="3.50" shape="134.39,64.47 138.52,63.62 141.48,60.88 143.28,56.23 143.91,49.68">
            <param key="signalID" value="1994 1996"/>
        </lane>
    </edge>
    <edge id=":103_8" function="internal">
        <lane id=":103_8_0" index="0" disallow="pedestrian tram rail_urban rail rail_electric rail_fast ship container cable_car subway aircraft wheelchair scooter drone" speed="13.89" length="40.16" width="3.50" shape="134.39,64.47 174.55,64.57">
            <param key="signalID" value="1996"/>
        </lane>
    </edge>
    <edge id=":103_9" function="internal">
        <lane id=":103_9_0" index="0" disallow="pedestrian tram rail_urban rail rail_electric rail_fast ship container cable_car subway aircraft wheelchair scooter drone" speed="11.46" length="6.81" width="3.50" shape="134.39,64.47 141.14,65.34">
            <param key="signalID" value="1996 1997"/>
        </lane>
    </edge>
    <edge id=":103_16" function="internal">
        <lane id=":103_16_0" index="0" disallow="pedestrian tram rail_urban rail rail_electric rail_fast ship container cable_car subway aircraft wheelchair scooter drone" speed="11.46" length="22.94" width="3.50" shape="141.14,65.34 143.54,65.65 150.06,68.73 153.95,73.71 155.22,80.59">
            <param key="signalID" value="1996 1997"/>
        </lane>
    </edge>
    <edge id=":103_10" function="internal">
        <lane id=":103_10_0" index="0" disallow="pedestrian tram rail_urban rail rail_electric rail_fast ship container cable_car subway aircraft wheelchair scooter drone" speed="8.96" length="17.73" width="3.50" shape="143.72,80.52 143.16,75.11 141.40,71.21 138.46,68.83 134.32,67.97"/>
    </edge>
    <edge id=":103_11" function="internal">
        <lane id=":103_11_0" index="0" disallow="pedestrian tram rail_urban rail rail_electric rail_fast ship container cable_car subway aircraft wheelchair scooter drone" speed="13.89" length="30.84" width="3.50" shape="143.72,80.52 143.91,49.68">
            <param key="signalID" value="1994"/>
        </lane>
        <lane id=":103_11_1" index="1" disallow="pedestrian tram rail_urban rail rail_electric rail_fast ship container cable_car subway aircraft wheelchair scooter drone" speed="13.89" length="30.84" width="3.50" shape="147.22,80.54 147.41,49.70">
            <param key="signalID" value="1994"/>
        </lane>
    </edge>
    <edge id=":103_13" function="internal">
        <lane id=":103_13_0" index="0" disallow="pedestrian tram rail_urban rail rail_electric rail_fast ship container cable_car subway aircraft wheelchair scooter drone" speed="12.37" length="12.34" width="3.50" shape="147.22,80.54 148.96,73.41 152.53,69.91">
            <param key="signalID" value="1994 1995"/>
        </lane>
    </edge>
    <edge id=":103_17" function="internal">
        <lane id=":103_17_0" index="0" disallow="pedestrian tram rail_urban rail rail_electric rail_fast ship container cable_car subway aircraft wheelchair scooter drone" speed="12.37" length="23.17" width="3.50" shape="152.53,69.91 154.10,68.37 162.63,65.43 174.55,64.57">
            <param key="signalID" value="1994 1995"/>
        </lane>
    </edge>
    <edge id=":1038_0" function="internal">
        <lane id=":1038_0_0" index="0" disallow="pedestrian tram rail_urban rail rail_electric rail_fast ship container cable_car subway aircraft wheelchair scooter drone" speed="13.89" length="34.70" width="3.50" shape="338.97,140.01 304.27,139.93"/>
    </edge>
    <edge id=":1038_1" function="internal">
        <lane id=":1038_1_0" index="0" disallow="pedestrian tram rail_urban rail rail_electric rail_fast ship container cable_car subway aircraft wheelchair scooter drone" speed="11.59" length="5.74" width="3.50" shape="338.97,140.01 333.29,139.14,0.03"/>
    </edge>
    <edge id=":1038_6" function="internal">
        <lane id=":1038_6_0" index="0" disallow="pedestrian tram rail_urban rail rail_electric rail_fast ship container cable_car subway aircraft wheelchair scooter drone" speed="11.59" length="25.01" width="3.50" shape="333.29,139.14,0.03 330.88,138.77,0.04 325.10,135.08,0.07 321.64,128.94,0.11 320.48,120.35,0.15"/>
    </edge>
    <edge id=":1038_2" function="internal">
        <lane id=":1038_2_0" index="0" disallow="pedestrian tram rail_urban rail rail_electric rail_fast ship container cable_car subway aircraft wheelchair scooter drone" speed="10.51" length="25.11" width="3.50" shape="323.98,120.35,0.15 324.92,127.41,0.11 327.73,132.46,0.07 332.42,135.49,0.04 338.97,136.51"/>
    </edge>
    <edge id=":1038_3" function="internal">
        <lane id=":1038_3_0" index="0" disallow="pedestrian tram rail_urban rail rail_electric rail_fast ship container cable_car subway aircraft wheelchair scooter drone" speed="11.74" length="31.70" width="3.50" shape="323.98,120.35,0.15 322.75,128.94,0.11 319.05,135.06,0.07 312.89,138.72,0.04 304.27,139.93"/>
    </edge>
    <edge id=":1038_4" function="internal">
        <lane id=":1038_4_0" index="0" disallow="pedestrian tram rail_urban rail rail_electric rail_fast ship container cable_car subway aircraft wheelchair scooter drone" speed="10.68" length="26.04" width="3.50" shape="304.27,136.43 311.37,135.44,0.04 316.43,132.43,0.07 319.47,127.40,0.11 320.48,120.35,0.15"/>
    </edge>
    <edge id=":1038_5" function="internal">
        <lane id=":1038_5_0" index="0" disallow="pedestrian tram rail_urban rail rail_electric rail_fast ship container cable_car subway aircraft wheelchair scooter drone" speed="13.89" length="34.70" width="3.50" shape="304.27,136.43 338.97,136.51"/>
    </edge>
    <edge id=":1082_0" function="internal">
        <lane id=":1082_0_0" index="0" disallow="pedestrian tram rail_urban rail rail_electric rail_fast ship container cable_car subway aircraft wheelchair scooter drone" speed="13.00" length="31.83" width="3.50" shape="182.75,206.98,-0.01 175.42,208.47,-0.01 169.56,212.45,-0.01 165.16,218.93,-0.00 162.23,227.90"/>
    </edge>
    <edge id=":1082_1" function="internal">
        <lane id=":1082_1_0" index="0" disallow="pedestrian tram rail_urban rail rail_electric rail_fast ship container cable_car subway aircraft wheelchair scooter drone" speed="13.89" length="32.87" width="3.50" shape="182.75,206.98,-0.01 175.43,209.40,-0.01 168.31,214.46,-0.01 161.20,219.51,-0.00 153.88,221.90"/>
    </edge>
    <edge id=":1082_2" function="internal">
        <lane id=":1082_2_0" index="0" disallow="pedestrian tram rail_urban rail rail_electric rail_fast ship container cable_car subway aircraft wheelchair scooter drone" speed="13.89" length="21.88" width="3.50" shape="182.64,203.48,-0.01 174.06,205.17,-0.01 167.23,209.69,-0.01 164.41,213.76,-0.01"/>
    </edge>
    <edge id=":1082_3" function="internal">
        <lane id=":1082_3_0" index="0" disallow="pedestrian tram rail_urban rail rail_electric rail_fast ship container cable_car subway aircraft wheelchair scooter drone" speed="13.89" length="32.85" width="3.50" shape="182.64,203.48,-0.01 175.32,205.90,-0.01 168.22,210.96,-0.01 161.11,216.01,-0.00 153.79,218.41"/>
    </edge>
    <edge id=":1082_8" function="internal">
        <lane id=":1082_8_0" index="0" disallow="pedestrian tram rail_urban rail rail_electric rail_fast ship container cable_car subway aircraft wheelchair scooter drone" speed="13.89" length="14.66" width="3.50" shape="164.41,213.76,-0.01 162.14,217.02,-0.00 158.81,227.18"/>
    </edge>
    <edge id=":1082_4" function="internal">
        <lane id=":1082_4_0" index="0" disallow="pedestrian tram rail_urban rail rail_electric rail_fast ship container cable_car subway aircraft wheelchair scooter drone" speed="13.89" length="32.60" width="3.50" shape="176.25,198.75 174.30,206.15 169.98,213.41 165.29,220.63 162.23,227.90"/>
    </edge>
    <edge id=":1082_5" function="internal">
        <lane id=":1082_5_0" index="0" disallow="pedestrian tram rail_urban rail rail_electric rail_fast ship container cable_car subway aircraft wheelchair scooter drone" speed="12.74" length="4.87" width="3.50" shape="176.25,198.75 175.52,203.57"/>
    </edge>
    <edge id=":1082_6" function="internal">
        <lane id=":1082_6_0" index="0" disallow="pedestrian tram rail_urban rail rail_electric rail_fast ship container cable_car subway aircraft wheelchair scooter drone" speed="13.89" length="31.97" width="3.50" shape="172.75,198.70 170.81,206.00 166.51,213.02 161.85,220.01 158.81,227.18"/>
    </edge>
    <edge id=":1082_7" function="internal">
        <lane id=":1082_7_0" index="0" disallow="pedestrian tram rail_urban rail rail_electric rail_fast ship container cable_car subway aircraft wheelchair scooter drone" speed="11.77" length="6.93" width="3.50" shape="172.75,198.70 171.71,205.56"/>
    </edge>
    <edge id=":1082_9" function="internal">
        <lane id=":1082_9_0" index="0" disallow="pedestrian tram rail_urban rail rail_electric rail_fast ship container cable_car subway aircraft wheelchair scooter drone" speed="12.74" length="31.55" width="3.50" shape="175.52,203.57 174.74,208.68 170.51,215.85 163.55,220.25 153.88,221.90"/>
    </edge>
    <edge id=":1082_10" function="internal">
        <lane id=":1082_10_0" index="0" disallow="pedestrian tram rail_urban rail rail_electric rail_fast ship container cable_car subway aircraft wheelchair scooter drone" speed="11.77" length="23.99" width="3.50" shape="171.71,205.56 171.47,207.15 167.88,213.25 161.99,217.00 153.79,218.41"/>
    </edge>
    <edge id=":1135_0" function="internal">
        <lane id=":1135_0_0" index="0" disallow="pedestrian tram rail_urban rail rail_electric rail_fast ship container cable_car subway aircraft wheelchair scooter drone" speed="9.10" length="18.44" width="3.50" shape="385.35,216.04 384.55,210.73 382.47,206.96 379.09,204.73 374.43,204.04"/>
    </edge>
    <edge id=":1135_1" function="internal">
        <lane id=":1135_1_0" index="0" disallow="pedestrian tram rail_urban rail rail_electric rail_fast ship container cable_car subway aircraft wheelchair scooter drone" speed="13.89" length="38.50" width="3.50" shape="385.35,216.04 384.41,177.55"/>
    </edge>
    <edge id=":1135_2" function="internal">
        <lane id=":1135_2_0" index="0" disallow="pedestrian tram rail_urban rail rail_electric rail_fast ship container cable_car subway aircraft wheelchair scooter drone" speed="10.32" length="6.72" width="3.50" shape="388.84,215.96 387.83,209.31"/>
    </edge>
    <edge id=":1135_3" function="internal">
        <lane id=":1135_3_0" index="0" disallow="pedestrian tram rail_urban rail rail_electric rail_fast ship container cable_car subway aircraft wheelchair scooter drone" speed="13.89" length="38.50" width="3.50" shape="388.84,215.96 387.91,177.47"/>
    </edge>
    <edge id=":1135_8" function="internal">
        <lane id=":1135_8_0" index="0" disallow="pedestrian tram rail_urban rail rail_electric rail_fast ship container cable_car subway aircraft wheelchair scooter drone" speed="10.32" length="17.32" width="3.50" shape="387.83,209.31 387.80,209.13 385.04,204.29 380.56,201.43 374.38,200.54"/>
    </edge>
    <edge id=":1135_4" function="internal">
        <lane id=":1135_4_0" index="0" disallow="pedestrian tram rail_urban rail rail_electric rail_fast ship container cable_car subway aircraft wheelchair scooter drone" speed="13.89" length="38.50" width="3.50" shape="398.41,177.21 399.34,215.70"/>
        <lane id=":1135_4_1" index="1" disallow="pedestrian tram rail_urban rail rail_electric rail_fast ship container cable_car subway aircraft wheelchair scooter drone" speed="13.89" length="38.50" width="3.50" shape="394.91,177.30 395.84,215.79"/>
    </edge>
    <edge id=":1135_6" function="internal">
        <lane id=":1135_6_0" index="0" disallow="pedestrian tram rail_urban rail rail_electric rail_fast ship container cable_car subway aircraft wheelchair scooter drone" speed="8.83" length="17.55" width="3.50" shape="374.21,189.04 378.77,188.27 382.00,186.09 383.88,182.52 384.41,177.55"/>
        <lane id=":1135_6_1" index="1" disallow="pedestrian tram rail_urban rail rail_electric rail_fast ship container cable_car subway aircraft wheelchair scooter drone" speed="10.09" length="23.23" width="3.50" shape="374.26,192.54 380.37,191.52 384.68,188.67 387.19,183.98 387.91,177.47"/>
    </edge>
    <edge id=":1168_0" function="internal">
        <lane id=":1168_0_0" index="0" disallow="pedestrian tram rail_urban rail rail_electric rail_fast ship container cable_car subway aircraft wheelchair scooter drone" speed="9.12" length="18.61" width="3.50" shape="301.78,215.42,0.20 300.90,210.93,0.16 298.46,207.75,0.13 294.45,205.88,0.10 288.87,205.32,0.06"/>
    </edge>
    <edge id=":1168_1" function="internal">
        <lane id=":1168_1_0" index="0" disallow="pedestrian tram rail_urban rail rail_electric rail_fast ship container cable_car subway aircraft wheelchair scooter drone" speed="1.39" length="29.00" width="3.50" shape="317.92,208.39,0.00 288.92,208.82,0.06"/>
    </edge>
    <edge id=":1168_2" function="internal">
        <lane id=":1168_2_0" index="0" disallow="pedestrian tram rail_urban rail rail_electric rail_fast ship container cable_car subway aircraft wheelchair scooter drone" speed="9.10" length="6.00" width="3.50" shape="317.87,204.89,0.00 312.29,205.61,0.06 311.95,205.78,0.06"/>
    </edge>
    <edge id=":1168_3" function="internal">
        <lane id=":1168_3_0" index="0" disallow="pedestrian tram rail_urban rail rail_electric rail_fast ship container cable_car subway aircraft wheelchair scooter drone" speed="13.89" length="29.00" width="3.50" shape="317.87,204.89,0.00 288.87,205.32,0.06"/>
        <lane id=":1168_3_1" index="1" disallow="pedestrian tram rail_urban rail rail_electric rail_fast ship container cable_car subway aircraft wheelchair scooter drone" speed="13.89" length="29.00" width="3.50" shape="317.81,201.39,0.00 288.82,201.82,0.06"/>
    </edge>
    <edge id=":1168_7" function="internal">
        <lane id=":1168_7_0" index="0" disallow="pedestrian tram rail_urban rail rail_electric rail_fast ship container cable_car subway aircraft wheelchair scooter drone" speed="9.10" length="12.62" width="3.50" shape="311.95,205.78,0.06 308.33,207.60,0.11 306.00,210.85,0.15 305.28,215.35,0.20"/>
    </edge>
    <edge id=":1168_5" function="internal">
        <lane id=":1168_5_0" index="0" disallow="pedestrian tram rail_urban rail rail_electric rail_fast ship container cable_car subway aircraft wheelchair scooter drone" speed="13.89" length="29.00" width="3.50" shape="288.65,190.32,0.06 317.64,189.89,0.00"/>
        <lane id=":1168_5_1" index="1" disallow="pedestrian tram rail_urban rail rail_electric rail_fast ship container cable_car subway aircraft wheelchair scooter drone" speed="13.89" length="29.00" width="3.50" shape="288.70,193.82,0.06 317.69,193.39,0.00"/>
    </edge>
    <edge id=":1191_0" function="internal">
        <lane id=":1191_0_0" index="0" disallow="pedestrian tram rail_urban rail rail_electric rail_fast ship container cable_car subway aircraft wheelchair scooter drone" speed="13.89" length="14.80" width="3.50" shape="199.86,206.65,0.01 185.08,206.91,-0.02"/>
        <lane id=":1191_0_1" index="1" disallow="pedestrian tram rail_urban rail rail_electric rail_fast ship container cable_car subway aircraft wheelchair scooter drone" speed="13.89" length="14.80" width="3.50" shape="199.81,203.15,0.01 184.99,203.41,-0.02"/>
    </edge>
    <edge id=":1191_2" function="internal">
        <lane id=":1191_2_0" index="0" disallow="pedestrian tram rail_urban rail rail_electric rail_fast ship container cable_car subway aircraft wheelchair scooter drone" speed="13.89" length="15.06" width="3.50" shape="184.61,191.78,-0.01 199.64,191.65,0.01"/>
        <lane id=":1191_2_1" index="1" disallow="pedestrian tram rail_urban rail rail_electric rail_fast ship container cable_car subway aircraft wheelchair scooter drone" speed="13.89" length="15.06" width="3.50" shape="184.60,195.28,-0.01 199.69,195.15,0.01"/>
    </edge>
    <edge id=":1205_0" function="internal">
        <lane id=":1205_0_0" index="0" disallow="pedestrian tram rail_urban rail rail_electric rail_fast ship container cable_car subway aircraft wheelchair scooter drone" speed="11.07" length="13.32" width="3.50" shape="171.55,184.64 174.35,187.74,-0.00 177.08,189.96,-0.01 179.75,191.30,-0.01 182.35,191.77,-0.01"/>
    </edge>
    <edge id=":1205_1" function="internal">
        <lane id=":1205_1_0" index="0" disallow="pedestrian tram rail_urban rail rail_electric rail_fast ship container cable_car subway aircraft wheelchair scooter drone" speed="13.89" length="15.14" width="3.50" shape="171.55,184.64 174.21,188.19 175.61,190.98 176.15,194.06 176.26,198.52"/>
    </edge>
    <edge id=":1205_2" function="internal">
        <lane id=":1205_2_0" index="0" disallow="pedestrian tram rail_urban rail rail_electric rail_fast ship container cable_car subway aircraft wheelchair scooter drone" speed="12.20" length="5.56" width="3.50" shape="168.80,186.81 172.14,190.48,-0.00 172.61,190.85,-0.00"/>
    </edge>
    <edge id=":1205_3" function="internal">
        <lane id=":1205_3_0" index="0" disallow="pedestrian tram rail_urban rail rail_electric rail_fast ship container cable_car subway aircraft wheelchair scooter drone" speed="13.36" length="12.78" width="3.50" shape="168.80,186.81 171.03,189.81 172.21,192.17 172.67,194.77 172.76,198.53"/>
    </edge>
    <edge id=":1205_4" function="internal">
        <lane id=":1205_4_0" index="0" disallow="pedestrian tram rail_urban rail rail_electric rail_fast ship container cable_car subway aircraft wheelchair scooter drone" speed="12.20" length="10.89" width="3.50" shape="172.61,190.85,-0.00 175.51,193.12,-0.00 178.90,194.71,-0.01 182.31,195.27,-0.01"/>
    </edge>
    <edge id=":1221_0" function="internal">
        <lane id=":1221_0_0" index="0" disallow="pedestrian tram rail_urban rail rail_electric rail_fast ship container cable_car subway aircraft wheelchair scooter drone" speed="8.56" length="16.26" width="3.50" shape="149.51,348.05 148.81,343.32 146.99,339.98 144.03,338.01 139.95,337.42"/>
    </edge>
    <edge id=":1221_1" function="internal">
        <lane id=":1221_1_0" index="0" disallow="pedestrian tram rail_urban rail rail_electric rail_fast ship container cable_car subway aircraft wheelchair scooter drone" speed="13.89" length="25.11" width="3.50" shape="149.51,348.05 148.89,322.94">
            <param key="signalID" value="2022"/>
        </lane>
        <lane id=":1221_1_1" index="1" disallow="pedestrian tram rail_urban rail rail_electric rail_fast ship container cable_car subway aircraft wheelchair scooter drone" speed="13.89" length="25.11" width="3.50" shape="153.01,347.96 152.39,322.86">
            <param key="signalID" value="2022"/>
        </lane>
    </edge>
    <edge id=":1221_3" function="internal">
        <lane id=":1221_3_0" index="0" disallow="pedestrian tram rail_urban rail rail_electric rail_fast ship container cable_car subway aircraft wheelchair scooter drone" speed="10.98" length="11.11" width="3.50" shape="153.01,347.96 154.09,341.67,0.02 157.03,337.96,0.04"/>
    </edge>
    <edge id=":1221_16" function="internal">
        <lane id=":1221_16_0" index="0" disallow="pedestrian tram rail_urban rail rail_electric rail_fast ship container cable_car subway aircraft wheelchair scooter drone" speed="10.98" length="16.51" width="3.50" shape="157.03,337.96,0.04 157.69,337.12,0.04 163.81,334.31,0.07 172.45,333.23,0.10"/>
    </edge>
    <edge id=":1221_4" function="internal">
        <lane id=":1221_4_0" index="0" disallow="pedestrian tram rail_urban rail rail_electric rail_fast ship container cable_car subway aircraft wheelchair scooter drone" speed="1.39" length="32.58" width="3.50" shape="172.60,340.22,0.10 140.02,340.92"/>
    </edge>
    <edge id=":1221_5" function="internal">
        <lane id=":1221_5_0" index="0" disallow="pedestrian tram rail_urban rail rail_electric rail_fast ship container cable_car subway aircraft wheelchair scooter drone" speed="8.52" length="4.30" width="3.50" shape="172.52,336.72,0.10 168.48,337.49,0.07 168.33,337.59,0.07">
            <param key="signalID" value="2019 2020"/>
        </lane>
    </edge>
    <edge id=":1221_6" function="internal">
        <lane id=":1221_6_0" index="0" disallow="pedestrian tram rail_urban rail rail_electric rail_fast ship container cable_car subway aircraft wheelchair scooter drone" speed="13.89" length="32.58" width="3.50" shape="172.52,336.72,0.10 139.95,337.42">
            <param key="signalID" value="2019"/>
        </lane>
    </edge>
    <edge id=":1221_7" function="internal">
        <lane id=":1221_7_0" index="0" disallow="pedestrian tram rail_urban rail rail_electric rail_fast ship container cable_car subway aircraft wheelchair scooter drone" speed="11.01" length="8.33" width="3.50" shape="172.52,336.72,0.10 164.22,336.05,0.07">
            <param key="signalID" value="2019"/>
        </lane>
    </edge>
    <edge id=":1221_17" function="internal">
        <lane id=":1221_17_0" index="0" disallow="pedestrian tram rail_urban rail rail_electric rail_fast ship container cable_car subway aircraft wheelchair scooter drone" speed="8.52" length="11.89" width="3.50" shape="168.33,337.59,0.07 165.63,339.57,0.05 163.97,342.97,0.03 163.50,347.70">
            <param key="signalID" value="2019 2020"/>
        </lane>
    </edge>
    <edge id=":1221_18" function="internal">
        <lane id=":1221_18_0" index="0" disallow="pedestrian tram rail_urban rail rail_electric rail_fast ship container cable_car subway aircraft wheelchair scooter drone" speed="11.01" length="19.32" width="3.50" shape="164.22,336.05,0.07 163.85,336.02,0.07 157.60,333.47,0.04 153.78,329.08,0.02 152.39,322.86">
            <param key="signalID" value="2019"/>
        </lane>
    </edge>
    <edge id=":1221_8" function="internal">
        <lane id=":1221_8_0" index="0" disallow="pedestrian tram rail_urban rail rail_electric rail_fast ship container cable_car subway aircraft wheelchair scooter drone" speed="8.56" length="16.26" width="3.50" shape="162.89,322.60 163.58,327.32,0.03 165.41,330.67,0.05 168.36,332.64,0.07 172.45,333.23,0.10"/>
    </edge>
    <edge id=":1221_9" function="internal">
        <lane id=":1221_9_0" index="0" disallow="pedestrian tram rail_urban rail rail_electric rail_fast ship container cable_car subway aircraft wheelchair scooter drone" speed="13.89" length="25.11" width="3.50" shape="162.89,322.60 163.50,347.70">
            <param key="signalID" value="2020"/>
        </lane>
        <lane id=":1221_9_1" index="1" disallow="pedestrian tram rail_urban rail rail_electric rail_fast ship container cable_car subway aircraft wheelchair scooter drone" speed="13.89" length="25.11" width="3.50" shape="159.39,322.69 160.01,347.79">
            <param key="signalID" value="2020"/>
        </lane>
    </edge>
    <edge id=":1221_11" function="internal">
        <lane id=":1221_11_0" index="0" disallow="pedestrian tram rail_urban rail rail_electric rail_fast ship container cable_car subway aircraft wheelchair scooter drone" speed="10.98" length="11.12" width="3.50" shape="159.39,322.69 158.30,328.97 155.37,332.69">
            <param key="signalID" value="2021 2020"/>
        </lane>
    </edge>
    <edge id=":1221_19" function="internal">
        <lane id=":1221_19_0" index="0" disallow="pedestrian tram rail_urban rail rail_electric rail_fast ship container cable_car subway aircraft wheelchair scooter drone" speed="10.98" length="16.51" width="3.50" shape="155.37,332.69 154.70,333.53 148.59,336.34 139.95,337.42">
            <param key="signalID" value="2021 2020"/>
        </lane>
    </edge>
    <edge id=":1221_12" function="internal">