<?xml version="1.0" encoding="UTF-8"?>

<!-- generated on 2024-11-26 15:10:29 by Eclipse SUMO netconvert Version v1_21_0+0971-f8f0176f172
<netconvertConfiguration xmlns:xsi="http://www.w3.org/2001/XMLSchema-instance" xsi:noNamespaceSchemaLocation="http://sumo.dlr.de/xsd/netconvertConfiguration.xsd">

    <input>
        <opendrive-files value="Town05.xodr"/>
    </input>

    <output>
        <output-file value="Town05.net.xml"/>
    </output>

    <junctions>
        <no-turnarounds.except-deadend value="true"/>
    </junctions>

</netconvertConfiguration>
-->

<net version="1.20" junctionCornerDetail="5" rectangularLaneCut="true" limitTurnSpeed="5.50" xmlns:xsi="http://www.w3.org/2001/XMLSchema-instance" xsi:noNamespaceSchemaLocation="http://sumo.dlr.de/xsd/net_file.xsd">

    <location netOffset="270.79,200.31" convBoundary="0.00,0.00,473.10,399.44" origBoundary="0.000000,0.000000,0.000000,0.000000" projParameter="+proj=tmerc +lat_0=0 +lon_0=0 +k=1 +x_0=0 +y_0=0 +datum=WGS84 +units=m +geoidgrids=egm96_15.gtx +vunits=m +no_defs "/>

    <type id="driving" priority="1" speed="13.89" disallow="pedestrian tram rail_urban rail rail_electric rail_fast ship container cable_car subway aircraft wheelchair scooter drone" width="3.65"/>

    <edge id=":1126_0" function="internal">
        <lane id=":1126_0_0" index="0" disallow="pedestrian tram rail_urban rail rail_electric rail_fast ship container cable_car subway aircraft wheelchair scooter drone" speed="10.10" length="19.05" width="3.50" shape="235.20,295.26 232.08,296.19,0.01 229.37,298.97,0.02 227.05,303.59,0.04 225.13,310.06,0.06">
            <param key="signalID" value="2393"/>
        </lane>
    </edge>
    <edge id=":1126_1" function="internal">
        <lane id=":1126_1_0" index="0" disallow="pedestrian tram rail_urban rail rail_electric rail_fast ship container cable_car subway aircraft wheelchair scooter drone" speed="13.89" length="30.18" width="3.50" shape="235.20,295.26 205.02,295.31">
            <param key="signalID" value="2394"/>
        </lane>
        <lane id=":1126_1_1" index="1" disallow="pedestrian tram rail_urban rail rail_electric rail_fast ship container cable_car subway aircraft wheelchair scooter drone" speed="13.89" length="30.18" width="3.50" shape="235.19,291.76 205.01,291.81">
            <param key="signalID" value="2394"/>
        </lane>
    </edge>
    <edge id=":1126_3" function="internal">
        <lane id=":1126_3_0" index="0" disallow="pedestrian tram rail_urban rail rail_electric rail_fast ship container cable_car subway aircraft wheelchair scooter drone" speed="10.72" length="5.75" width="3.50" shape="235.19,291.76 229.51,290.91,0.01">
            <param key="signalID" value="2394 2396"/>
        </lane>
    </edge>
    <edge id=":1126_16" function="internal">
        <lane id=":1126_16_0" index="0" disallow="pedestrian tram rail_urban rail rail_electric rail_fast ship container cable_car subway aircraft wheelchair scooter drone" speed="10.72" length="20.59" width="3.50" shape="229.51,290.91,0.01 228.24,290.72,0.01 223.29,287.57,0.03 220.34,282.32,0.04 219.38,274.96,0.06">
            <param key="signalID" value="2394 2396"/>
        </lane>
    </edge>
    <edge id=":1126_4" function="internal">
        <lane id=":1126_4_0" index="0" disallow="pedestrian tram rail_urban rail rail_electric rail_fast ship container cable_car subway aircraft wheelchair scooter drone" speed="8.21" length="15.00" width="3.50" shape="226.38,275.00,0.06 226.91,279.28,0.04 228.56,282.33,0.03 231.31,284.16,0.01 235.18,284.76"/>
    </edge>
    <edge id=":1126_5" function="internal">
        <lane id=":1126_5_0" index="0" disallow="pedestrian tram rail_urban rail rail_electric rail_fast ship container cable_car subway aircraft wheelchair scooter drone" speed="13.89" length="34.76" width="3.50" shape="226.38,275.00,0.06 226.48,283.33,0.06 226.59,292.63,0.06 226.27,301.88,0.06 225.13,310.06,0.06">
            <param key="signalID" value="2393"/>
        </lane>
        <lane id=":1126_5_1" index="1" disallow="pedestrian tram rail_urban rail rail_electric rail_fast ship container cable_car subway aircraft wheelchair scooter drone" speed="13.89" length="34.76" width="3.50" shape="222.88,274.98,0.06 222.99,283.19,0.06 223.12,292.23,0.06 222.84,301.21,0.06 221.72,309.28,0.06">
            <param key="signalID" value="2393"/>
        </lane>
    </edge>
    <edge id=":1126_7" function="internal">
        <lane id=":1126_7_0" index="0" disallow="pedestrian tram rail_urban rail rail_electric rail_fast ship container cable_car subway aircraft wheelchair scooter drone" speed="11.08" length="5.08" width="3.50" shape="222.88,274.98,0.06 222.10,280.00,0.05">
            <param key="signalID" value="2396"/>
        </lane>
    </edge>
    <edge id=":1126_17" function="internal">
        <lane id=":1126_17_0" index="0" disallow="pedestrian tram rail_urban rail rail_electric rail_fast ship container cable_car subway aircraft wheelchair scooter drone" speed="11.08" length="22.86" width="3.50" shape="222.10,280.00,0.05 221.73,282.33,0.04 218.37,287.59,0.03 212.79,290.75,0.02 205.01,291.81">
            <param key="signalID" value="2396"/>
        </lane>
    </edge>
    <edge id=":1126_8" function="internal">
        <lane id=":1126_8_0" index="0" disallow="pedestrian tram rail_urban rail rail_electric rail_fast ship container cable_car subway aircraft wheelchair scooter drone" speed="8.69" length="16.71" width="3.50" shape="205.00,284.81 209.74,284.19,0.02 213.14,282.33,0.03 215.18,279.25,0.04 215.88,274.94,0.06">
            <param key="signalID" value="2395"/>
        </lane>
    </edge>
    <edge id=":1126_9" function="internal">
        <lane id=":1126_9_0" index="0" disallow="pedestrian tram rail_urban rail rail_electric rail_fast ship container cable_car subway aircraft wheelchair scooter drone" speed="13.89" length="30.18" width="3.50" shape="205.00,284.81 235.18,284.76">
            <param key="signalID" value="2396"/>
        </lane>
        <lane id=":1126_9_1" index="1" disallow="pedestrian tram rail_urban rail rail_electric rail_fast ship container cable_car subway aircraft wheelchair scooter drone" speed="13.89" length="30.18" width="3.50" shape="205.01,288.31 235.19,288.26">
            <param key="signalID" value="2396"/>
        </lane>
    </edge>
    <edge id=":1126_11" function="internal">
        <lane id=":1126_11_0" index="0" disallow="pedestrian tram rail_urban rail rail_electric rail_fast ship container cable_car subway aircraft wheelchair scooter drone" speed="11.06" length="6.53" width="3.50" shape="205.01,288.31 211.49,289.16,0.01">
            <param key="signalID" value="2396"/>
        </lane>
    </edge>
    <edge id=":1126_18" function="internal">
        <lane id=":1126_18_0" index="0" disallow="pedestrian tram rail_urban rail rail_electric rail_fast ship container cable_car subway aircraft wheelchair scooter drone" speed="11.06" length="26.29" width="3.50" shape="211.49,289.16,0.01 214.37,289.53,0.02 220.21,293.34,0.03 222.62,299.87,0.04 221.72,309.28,0.06">
            <param key="signalID" value="2396"/>
        </lane>
    </edge>
    <edge id=":1126_12" function="internal">
        <lane id=":1126_12_0" index="0" disallow="pedestrian tram rail_urban rail rail_electric rail_fast ship container cable_car subway aircraft wheelchair scooter drone" speed="8.58" length="19.18" width="3.50" shape="214.90,307.71,0.06 215.32,302.28,0.04 213.82,298.40,0.03 210.39,296.08,0.02 205.02,295.31">
            <param key="signalID" value="2394"/>
        </lane>
    </edge>
    <edge id=":1126_13" function="internal">
        <lane id=":1126_13_0" index="0" disallow="pedestrian tram rail_urban rail rail_electric rail_fast ship container cable_car subway aircraft wheelchair scooter drone" speed="13.89" length="33.23" width="3.50" shape="214.90,307.71,0.06 215.97,299.88,0.06 216.19,291.42,0.06 216.01,282.91,0.06 215.88,274.94,0.06">
            <param key="signalID" value="2395"/>
        </lane>
        <lane id=":1126_13_1" index="1" disallow="pedestrian tram rail_urban rail rail_electric rail_fast ship container cable_car subway aircraft wheelchair scooter drone" speed="13.89" length="33.23" width="3.50" shape="218.31,308.49,0.06 219.41,300.55,0.06 219.66,291.82,0.06 219.50,283.05,0.06 219.38,274.96,0.06">
            <param key="signalID" value="2395"/>
        </lane>
    </edge>
    <edge id=":1126_15" function="internal">
        <lane id=":1126_15_0" index="0" disallow="pedestrian tram rail_urban rail rail_electric rail_fast ship container cable_car subway aircraft wheelchair scooter drone" speed="12.22" length="5.12" width="3.50" shape="218.31,308.49,0.06 219.85,303.61,0.05">
            <param key="signalID" value="2395"/>
        </lane>
    </edge>
    <edge id=":1126_19" function="internal">
        <lane id=":1126_19_0" index="0" disallow="pedestrian tram rail_urban rail rail_electric rail_fast ship container cable_car subway aircraft wheelchair scooter drone" speed="12.22" length="23.34" width="3.50" shape="219.85,303.61,0.05 221.09,299.65,0.04 224.84,293.33,0.02 229.53,289.53,0.01 235.19,288.26">
            <param key="signalID" value="2395"/>
        </lane>
    </edge>
    <edge id=":1292_0" function="internal">
        <lane id=":1292_0_0" index="0" disallow="pedestrian tram rail_urban rail rail_electric rail_fast ship container cable_car subway aircraft wheelchair scooter drone" speed="7.60" length="12.34" width="3.50" shape="297.46,302.66,0.00 296.89,299.39,0.00 295.38,297.05,0.00 292.94,295.64,0.00 289.56,295.18"/>
    </edge>
    <edge id=":1292_1" function="internal">
        <lane id=":1292_1_0" index="0" disallow="pedestrian tram rail_urban rail rail_electric rail_fast ship container cable_car subway aircraft wheelchair scooter drone" speed="13.89" length="25.46" width="3.50" shape="297.46,302.66,0.00 296.78,277.22,0.00">
            <param key="signalID" value="2400"/>
        </lane>
        <lane id=":1292_1_1" index="1" disallow="pedestrian tram rail_urban rail rail_electric rail_fast ship container cable_car subway aircraft wheelchair scooter drone" speed="13.89" length="25.46" width="3.50" shape="300.96,302.57,0.00 300.28,277.12,0.00">
            <param key="signalID" value="2400"/>
        </lane>
    </edge>
    <edge id=":1292_3" function="internal">
        <lane id=":1292_3_0" index="0" disallow="pedestrian tram rail_urban rail rail_electric rail_fast ship container cable_car subway aircraft wheelchair scooter drone" speed="10.06" length="6.04" width="3.50" shape="300.96,302.57,0.00 301.66,296.57,0.00">
            <param key="signalID" value="2400"/>
        </lane>
    </edge>
    <edge id=":1292_16" function="internal">
        <lane id=":1292_16_0" index="0" disallow="pedestrian tram rail_urban rail rail_electric rail_fast ship container cable_car subway aircraft wheelchair scooter drone" speed="10.06" length="17.82" width="3.50" shape="301.66,296.57,0.00 301.72,296.03,0.00 304.41,291.41,0.00 309.02,288.72,0.00 315.56,287.94">
            <param key="signalID" value="2400"/>
        </lane>
    </edge>
    <edge id=":1292_4" function="internal">
        <lane id=":1292_4_0" index="0" disallow="pedestrian tram rail_urban rail rail_electric rail_fast ship container cable_car subway aircraft wheelchair scooter drone" speed="7.34" length="12.14" width="3.50" shape="315.38,294.94 312.06,295.33,0.00 309.71,296.71,0.00 308.34,299.06,0.00 307.96,302.38,0.00">
            <param key="signalID" value="2398"/>
        </lane>
    </edge>
    <edge id=":1292_5" function="internal">
        <lane id=":1292_5_0" index="0" disallow="pedestrian tram rail_urban rail rail_electric rail_fast ship container cable_car subway aircraft wheelchair scooter drone" speed="13.89" length="25.87" width="3.50" shape="315.38,294.94 289.56,295.18"/>
        <lane id=":1292_5_1" index="1" disallow="pedestrian tram rail_urban rail rail_electric rail_fast ship container cable_car subway aircraft wheelchair scooter drone" speed="13.89" length="25.87" width="3.50" shape="315.47,291.44 289.55,291.68">
            <param key="signalID" value="2399 2399"/>
        </lane>
    </edge>
    <edge id=":1292_7" function="internal">
        <lane id=":1292_7_0" index="0" disallow="pedestrian tram rail_urban rail rail_electric rail_fast ship container cable_car subway aircraft wheelchair scooter drone" speed="10.38" length="5.18" width="3.50" shape="315.47,291.44 310.36,290.63,0.00">
            <param key="signalID" value="2399 2397"/>
        </lane>
    </edge>
    <edge id=":1292_17" function="internal">
        <lane id=":1292_17_0" index="0" disallow="pedestrian tram rail_urban rail rail_electric rail_fast ship container cable_car subway aircraft wheelchair scooter drone" speed="10.38" length="18.36" width="3.50" shape="310.36,290.63,0.00 308.96,290.41,0.00 304.26,287.68,0.00 301.37,283.25,0.00 300.28,277.12,0.00">
            <param key="signalID" value="2399 2397"/>
        </lane>
    </edge>
    <edge id=":1292_8" function="internal">
        <lane id=":1292_8_0" index="0" disallow="pedestrian tram rail_urban rail rail_electric rail_fast ship container cable_car subway aircraft wheelchair scooter drone" speed="7.76" length="12.67" width="3.50" shape="307.28,276.94,0.00 307.87,280.14,0.00 309.47,282.46,0.00 312.06,283.90,0.00 315.65,284.44"/>
    </edge>
    <edge id=":1292_9" function="internal">
        <lane id=":1292_9_0" index="0" disallow="pedestrian tram rail_urban rail rail_electric rail_fast ship container cable_car subway aircraft wheelchair scooter drone" speed="13.89" length="25.46" width="3.50" shape="307.28,276.94,0.00 307.96,302.38,0.00">
            <param key="signalID" value="2398"/>
        </lane>
        <lane id=":1292_9_1" index="1" disallow="pedestrian tram rail_urban rail rail_electric rail_fast ship container cable_car subway aircraft wheelchair scooter drone" speed="13.89" length="25.46" width="3.50" shape="303.78,277.03,0.00 304.46,302.48,0.00">
            <param key="signalID" value="2398"/>
        </lane>
    </edge>
    <edge id=":1292_11" function="internal">
        <lane id=":1292_11_0" index="0" disallow="pedestrian tram rail_urban rail rail_electric rail_fast ship container cable_car subway aircraft wheelchair scooter drone" speed="10.07" length="6.06" width="3.50" shape="303.78,277.03,0.00 303.08,283.05,0.00">
            <param key="signalID" value="2397"/>
        </lane>
    </edge>
    <edge id=":1292_18" function="internal">
        <lane id=":1292_18_0" index="0" disallow="pedestrian tram rail_urban rail rail_electric rail_fast ship container cable_car subway aircraft wheelchair scooter drone" speed="10.07" length="17.36" width="3.50" shape="303.08,283.05,0.00 303.03,283.43,0.00 300.42,288.01,0.00 295.92,290.76,0.00 289.55,291.68">
            <param key="signalID" value="2397"/>
        </lane>
    </edge>
    <edge id=":1292_12" function="internal">
        <lane id=":1292_12_0" index="0" disallow="pedestrian tram rail_urban rail rail_electric rail_fast ship container cable_car subway aircraft wheelchair scooter drone" speed="7.35" length="11.92" width="3.50" shape="289.54,284.68 292.78,284.21,0.00 295.07,282.81,0.00 296.40,280.48,0.00 296.78,277.22,0.00">
            <param key="signalID" value="2400"/>
        </lane>
    </edge>
    <edge id=":1292_13" function="internal">
        <lane id=":1292_13_0" index="0" disallow="pedestrian tram rail_urban rail rail_electric rail_fast ship container cable_car subway aircraft wheelchair scooter drone" speed="13.89" length="26.06" width="3.50" shape="289.54,284.68 315.65,284.44"/>
        <lane id=":1292_13_1" index="1" disallow="pedestrian tram rail_urban rail rail_electric rail_fast ship container cable_car subway aircraft wheelchair scooter drone" speed="13.89" length="26.06" width="3.50" shape="289.55,288.18 315.56,287.94">
            <param key="signalID" value="2397 2397"/>
        </lane>
    </edge>
    <edge id=":1292_15" function="internal">
        <lane id=":1292_15_0" index="0" disallow="pedestrian tram rail_urban rail rail_electric rail_fast ship container cable_car subway aircraft wheelchair scooter drone" speed="10.26" length="5.87" width="3.50" shape="289.55,288.18 295.36,288.99,0.00">
            <param key="signalID" value="2399 2397"/>
        </lane>
    </edge>
    <edge id=":1292_19" function="internal">
        <lane id=":1292_19_0" index="0" disallow="pedestrian tram rail_urban rail rail_electric rail_fast ship container cable_car subway aircraft wheelchair scooter drone" speed="10.26" length="17.56" width="3.50" shape="295.36,288.99,0.00 295.93,289.07,0.00 300.54,291.74,0.00 303.38,296.21,0.00 304.46,302.48,0.00">
            <param key="signalID" value="2399 2397"/>
        </lane>
    </edge>
    <edge id=":1427_0" function="internal">
        <lane id=":1427_0_0" index="0" disallow="pedestrian tram rail_urban rail rail_electric rail_fast ship container cable_car subway aircraft wheelchair scooter drone" speed="7.47" length="12.09" width="3.50" shape="234.40,204.68 231.07,205.13,0.02 228.69,206.51,0.03 227.25,208.81,0.04 226.76,212.04,0.06">
            <param key="signalID" value="2401"/>
        </lane>
    </edge>
    <edge id=":1427_1" function="internal">
        <lane id=":1427_1_0" index="0" disallow="pedestrian tram rail_urban rail rail_electric rail_fast ship container cable_car subway aircraft wheelchair scooter drone" speed="13.89" length="25.37" width="3.50" shape="234.40,204.68 209.03,204.62">
            <param key="signalID" value="2402"/>
        </lane>
        <lane id=":1427_1_1" index="1" disallow="pedestrian tram rail_urban rail rail_electric rail_fast ship container cable_car subway aircraft wheelchair scooter drone" speed="13.89" length="25.37" width="3.50" shape="234.41,201.18 209.04,201.12">
            <param key="signalID" value="2402"/>
        </lane>
    </edge>
    <edge id=":1427_3" function="internal">
        <lane id=":1427_3_0" index="0" disallow="pedestrian tram rail_urban rail rail_electric rail_fast ship container cable_car subway aircraft wheelchair scooter drone" speed="10.07" length="6.05" width="3.50" shape="234.41,201.18 228.42,200.30,0.01">
            <param key="signalID" value="2402"/>
        </lane>
    </edge>
    <edge id=":1427_16" function="internal">
        <lane id=":1427_16_0" index="0" disallow="pedestrian tram rail_urban rail rail_electric rail_fast ship container cable_car subway aircraft wheelchair scooter drone" speed="10.07" length="17.19" width="3.50" shape="228.42,200.30,0.01 228.09,200.26,0.02 223.62,197.53,0.03 220.99,193.00,0.04 220.20,186.66,0.06">
            <param key="signalID" value="2402"/>
        </lane>
    </edge>
    <edge id=":1427_4" function="internal">
        <lane id=":1427_4_0" index="0" disallow="pedestrian tram rail_urban rail rail_electric rail_fast ship container cable_car subway aircraft wheelchair scooter drone" speed="7.35" length="11.83" width="3.50" shape="227.19,186.78,0.06 227.60,190.01,0.04 228.94,192.32,0.03 231.21,193.71,0.02 234.42,194.18">
            <param key="signalID" value="2404"/>
        </lane>
    </edge>
    <edge id=":1427_5" function="internal">
        <lane id=":1427_5_0" index="0" disallow="pedestrian tram rail_urban rail rail_electric rail_fast ship container cable_car subway aircraft wheelchair scooter drone" speed="13.89" length="25.28" width="3.50" shape="227.19,186.78,0.06 226.76,212.04,0.06">
            <param key="signalID" value="2401"/>
        </lane>
        <lane id=":1427_5_1" index="1" disallow="pedestrian tram rail_urban rail rail_electric rail_fast ship container cable_car subway aircraft wheelchair scooter drone" speed="13.89" length="25.28" width="3.50" shape="223.69,186.72,0.06 223.26,212.01,0.06">
            <param key="signalID" value="2401"/>
        </lane>
    </edge>
    <edge id=":1427_7" function="internal">
        <lane id=":1427_7_0" index="0" disallow="pedestrian tram rail_urban rail rail_electric rail_fast ship container cable_car subway aircraft wheelchair scooter drone" speed="10.20" length="6.09" width="3.50" shape="223.69,186.72,0.06 222.73,192.74,0.04">
            <param key="signalID" value="2404"/>
        </lane>
    </edge>
    <edge id=":1427_17" function="internal">
        <lane id=":1427_17_0" index="0" disallow="pedestrian tram rail_urban rail rail_electric rail_fast ship container cable_car subway aircraft wheelchair scooter drone" speed="10.20" length="17.26" width="3.50" shape="222.73,192.74,0.04 222.68,193.03,0.04 219.90,197.53,0.03 215.35,200.23,0.02 209.04,201.12">
            <param key="signalID" value="2404"/>
        </lane>
    </edge>
    <edge id=":1427_8" function="internal">
        <lane id=":1427_8_0" index="0" disallow="pedestrian tram rail_urban rail rail_electric rail_fast ship container cable_car subway aircraft wheelchair scooter drone" speed="7.52" length="12.18" width="3.50" shape="209.05,194.12 212.35,193.65,0.02 214.72,192.25,0.03 216.17,189.89,0.04 216.70,186.60,0.06">
            <param key="signalID" value="2403"/>
        </lane>
    </edge>
    <edge id=":1427_9" function="internal">
        <lane id=":1427_9_0" index="0" disallow="pedestrian tram rail_urban rail rail_electric rail_fast ship container cable_car subway aircraft wheelchair scooter drone" speed="13.89" length="25.37" width="3.50" shape="209.05,194.12 234.42,194.18">
            <param key="signalID" value="2404"/>
        </lane>
        <lane id=":1427_9_1" index="1" disallow="pedestrian tram rail_urban rail rail_electric rail_fast ship container cable_car subway aircraft wheelchair scooter drone" speed="13.89" length="25.37" width="3.50" shape="209.04,197.62 234.41,197.68">
            <param key="signalID" value="2404"/>
        </lane>
    </edge>
    <edge id=":1427_11" function="internal">
        <lane id=":1427_11_0" index="0" disallow="pedestrian tram rail_urban rail rail_electric rail_fast ship container cable_car subway aircraft wheelchair scooter drone" speed="10.08" length="6.04" width="3.50" shape="209.04,197.62 215.02,198.49,0.01">
            <param key="signalID" value="2404"/>
        </lane>
    </edge>
    <edge id=":1427_18" function="internal">
        <lane id=":1427_18_0" index="0" disallow="pedestrian tram rail_urban rail rail_electric rail_fast ship container cable_car subway aircraft wheelchair scooter drone" speed="10.08" length="17.05" width="3.50" shape="215.02,198.49,0.01 215.29,198.53,0.02 219.75,201.23,0.03 222.40,205.73,0.04 223.26,212.01,0.06">
            <param key="signalID" value="2404"/>
        </lane>
    </edge>
    <edge id=":1427_12" function="internal">
        <lane id=":1427_12_0" index="0" disallow="pedestrian tram rail_urban rail rail_electric rail_fast ship container cable_car subway aircraft wheelchair scooter drone" speed="7.36" length="11.77" width="3.50" shape="216.26,211.97,0.06 215.82,208.76,0.04 214.47,206.46,0.03 212.21,205.08,0.02 209.03,204.62">
            <param key="signalID" value="2402"/>
        </lane>
    </edge>
    <edge id=":1427_13" function="internal">
        <lane id=":1427_13_0" index="0" disallow="pedestrian tram rail_urban rail rail_electric rail_fast ship container cable_car subway aircraft wheelchair scooter drone" speed="13.89" length="25.36" width="3.50" shape="216.26,211.97,0.06 216.70,186.60,0.06">
            <param key="signalID" value="2403"/>
        </lane>
        <lane id=":1427_13_1" index="1" disallow="pedestrian tram rail_urban rail rail_electric rail_fast ship container cable_car subway aircraft wheelchair scooter drone" speed="13.89" length="25.36" width="3.50" shape="219.76,211.99,0.06 220.20,186.66,0.06">
            <param key="signalID" value="2403"/>
        </lane>
    </edge>
    <edge id=":1427_15" function="internal">
        <lane id=":1427_15_0" index="0" disallow="pedestrian tram rail_urban rail rail_electric rail_fast ship container cable_car subway aircraft wheelchair scooter drone" speed="10.16" length="6.35" width="3.50" shape="219.76,211.99,0.06 220.70,205.72,0.04">
            <param key="signalID" value="2403"/>
        </lane>
    </edge>
    <edge id=":1427_19" function="internal">
        <lane id=":1427_19_0" index="0" disallow="pedestrian tram rail_urban rail rail_electric rail_fast ship container cable_car subway aircraft wheelchair scooter drone" speed="10.16" length="17.00" width="3.50" shape="220.70,205.72,0.04 223.46,201.24,0.03 228.03,198.56,0.02 234.41,197.68">
            <param key="signalID" value="2403"/>
        </lane>
    </edge>
    <edge id=":15.14_0" function="internal">
        <lane id=":15.14_0_0" index="0" disallow="pedestrian tram rail_urban rail rail_electric rail_fast ship container cable_car subway aircraft wheelchair scooter drone" speed="13.89" length="0.10" width="3.50" shape="297.52,304.90,0.00 297.52,304.90,0.00"/>
        <lane id=":15.14_0_1" index="1" disallow="pedestrian tram rail_urban rail rail_electric rail_fast ship container cable_car subway aircraft wheelchair scooter drone" speed="13.89" length="0.10" width="3.50" shape="301.02,304.81,0.00 301.02,304.81,0.00"/>
    </edge>
    <edge id=":15.14_2" function="internal">
        <lane id=":15.14_2_0" index="0" disallow="pedestrian tram rail_urban rail rail_electric rail_fast ship container cable_car subway aircraft wheelchair scooter drone" speed="13.89" length="0.10" width="3.50" shape="308.02,304.62,0.00 308.02,304.62,0.00"/>
        <lane id=":15.14_2_1" index="1" disallow="pedestrian tram rail_urban rail rail_electric rail_fast ship container cable_car subway aircraft wheelchair scooter drone" speed="13.89" length="0.10" width="3.50" shape="304.52,304.72,0.00 304.52,304.72,0.00"/>
    </edge>
    <edge id=":1574_0" function="internal">
        <lane id=":1574_0_0" index="0" disallow="pedestrian tram rail_urban rail rail_electric rail_fast ship container cable_car subway aircraft wheelchair scooter drone" speed="7.55" length="12.35" width="3.50" shape="295.19,212.91,0.00 294.72,209.37,0.00 293.36,206.84,0.00 291.11,205.32,0.00 287.96,204.81"/>
    </edge>
    <edge id=":1574_1" function="internal">
        <lane id=":1574_1_0" index="0" disallow="pedestrian tram rail_urban rail rail_electric rail_fast ship container cable_car subway aircraft wheelchair scooter drone" speed="13.89" length="25.77" width="3.50" shape="295.19,212.91,0.00 295.38,187.12,0.00">
            <param key="signalID" value="2408"/>
        </lane>
        <lane id=":1574_1_1" index="1" disallow="pedestrian tram rail_urban rail rail_electric rail_fast ship container cable_car subway aircraft wheelchair scooter drone" speed="13.89" length="25.77" width="3.50" shape="298.69,212.89,0.00 298.88,187.14,0.00">
            <param key="signalID" value="2408"/>
        </lane>
    </edge>
    <edge id=":1574_3" function="internal">
        <lane id=":1574_3_0" index="0" disallow="pedestrian tram rail_urban rail rail_electric rail_fast ship container cable_car subway aircraft wheelchair scooter drone" speed="10.12" length="6.30" width="3.50" shape="298.69,212.89,0.00 299.57,206.65,0.00">
            <param key="signalID" value="2406 2408"/>
        </lane>
    </edge>
    <edge id=":1574_16" function="internal">
        <lane id=":1574_16_0" index="0" disallow="pedestrian tram rail_urban rail rail_electric rail_fast ship container cable_car subway aircraft wheelchair scooter drone" speed="10.12" length="16.93" width="3.50" shape="299.57,206.65,0.00 302.27,202.18,0.00 306.81,199.49,0.00 313.17,198.57">
            <param key="signalID" value="2406 2408"/>
        </lane>
    </edge>
    <edge id=":1574_4" function="internal">
        <lane id=":1574_4_0" index="0" disallow="pedestrian tram rail_urban rail rail_electric rail_fast ship container cable_car subway aircraft wheelchair scooter drone" speed="7.41" length="11.93" width="3.50" shape="313.20,205.57 309.90,206.03,0.00 307.55,207.40,0.00 306.15,209.68,0.00 305.69,212.85,0.00"/>
    </edge>
    <edge id=":1574_5" function="internal">
        <lane id=":1574_5_0" index="0" disallow="pedestrian tram rail_urban rail rail_electric rail_fast ship container cable_car subway aircraft wheelchair scooter drone" speed="13.89" length="25.25" width="3.50" shape="313.20,205.57 287.96,204.81"/>
        <lane id=":1574_5_1" index="1" disallow="pedestrian tram rail_urban rail rail_electric rail_fast ship container cable_car subway aircraft wheelchair scooter drone" speed="13.89" length="25.25" width="3.50" shape="313.19,202.07 287.97,201.31">
            <param key="signalID" value="2407 2407"/>
        </lane>
    </edge>
    <edge id=":1574_7" function="internal">
        <lane id=":1574_7_0" index="0" disallow="pedestrian tram rail_urban rail rail_electric rail_fast ship container cable_car subway aircraft wheelchair scooter drone" speed="10.16" length="6.48" width="3.50" shape="313.19,202.07 306.89,201.16,0.00 306.79,201.09,0.00">
            <param key="signalID" value="2407"/>
        </lane>
    </edge>
    <edge id=":1574_17" function="internal">
        <lane id=":1574_17_0" index="0" disallow="pedestrian tram rail_urban rail rail_electric rail_fast ship container cable_car subway aircraft wheelchair scooter drone" speed="10.16" length="17.15" width="3.50" shape="306.79,201.09,0.00 302.41,198.37,0.00 299.74,193.69,0.00 298.88,187.14,0.00">
            <param key="signalID" value="2407"/>
        </lane>
    </edge>
    <edge id=":1574_8" function="internal">
        <lane id=":1574_8_0" index="0" disallow="pedestrian tram rail_urban rail rail_electric rail_fast ship container cable_car subway aircraft wheelchair scooter drone" speed="7.48" length="12.26" width="3.50" shape="305.88,187.18,0.00 306.32,190.64,0.00 307.67,193.11,0.00 309.95,194.59,0.00 313.16,195.07">
            <param key="signalID" value="2405"/>
        </lane>
    </edge>
    <edge id=":1574_9" function="internal">