<?xml version="1.0" encoding="UTF-8"?>

<!-- generated on 2025-06-17 14:28:27 by Eclipse SUMO netconvert Version 1.20.0
<configuration xmlns:xsi="http://www.w3.org/2001/XMLSchema-instance" xsi:noNamespaceSchemaLocation="http://sumo.dlr.de/xsd/netconvertConfiguration.xsd">

    <input>
        <opendrive-files value="Town02.xodr"/>
    </input>

    <output>
        <output-file value="Town02.net.xml"/>
    </output>

    <junctions>
        <no-turnarounds.except-deadend value="true"/>
    </junctions>

</configuration>
-->

<net version="1.20" junctionCornerDetail="5" rectangularLaneCut="true" limitTurnSpeed="5.50" xmlns:xsi="http://www.w3.org/2001/XMLSchema-instance" xsi:noNamespaceSchemaLocation="http://sumo.dlr.de/xsd/net_file.xsd">

    <location netOffset="5.46,304.56" convBoundary="0.00,0.00,197.20,197.17" origBoundary="0.000000,0.000000,0.000000,0.000000" projParameter="+proj=tmerc +lat_0=0 +lon_0=0 +k=1 +x_0=0 +y_0=0 +datum=WGS84 +units=m +geoidgrids=egm96_15.gtx +vunits=m +no_defs "/>

    <type id="driving" priority="1" speed="13.89" disallow="pedestrian tram rail_urban rail rail_electric rail_fast ship container cable_car subway aircraft wheelchair scooter drone" width="3.65"/>

    <edge id=":132_0" function="internal">
        <lane id=":132_0_0" index="0" disallow="pedestrian tram rail_urban rail rail_electric rail_fast ship container cable_car subway aircraft wheelchair scooter drone" speed="7.25" length="11.19" width="4.00" shape="137.58,74.38 137.13,71.43 135.79,69.32 133.56,68.06 130.44,67.64">
            <param key="signalID" value="462 471"/>
        </lane>
    </edge>
    <edge id=":132_1" function="internal">
        <lane id=":132_1_0" index="0" disallow="pedestrian tram rail_urban rail rail_electric rail_fast ship container cable_car subway aircraft wheelchair scooter drone" speed="8.87" length="17.43" width="4.00" shape="137.58,74.38 138.25,69.68 140.29,66.32 143.68,64.30 148.44,63.63">
            <param key="signalID" value="463 471"/>
        </lane>
    </edge>
    <edge id=":132_2" function="internal">
        <lane id=":132_2_0" index="0" disallow="pedestrian tram rail_urban rail rail_electric rail_fast ship container cable_car subway aircraft wheelchair scooter drone" speed="7.18" length="10.98" width="4.00" shape="148.44,67.63 145.44,68.05 143.29,69.32 142.01,71.43 141.58,74.38">
            <param key="signalID" value="457 464"/>
        </lane>
    </edge>
    <edge id=":132_3" function="internal">
        <lane id=":132_3_0" index="0" disallow="pedestrian tram rail_urban rail rail_electric rail_fast ship container cable_car subway aircraft wheelchair scooter drone" speed="13.89" length="18.00" width="4.00" shape="148.44,67.63 130.44,67.64">
            <param key="signalID" value="457 464"/>
        </lane>
    </edge>
    <edge id=":132_4" function="internal">
        <lane id=":132_4_0" index="0" disallow="pedestrian tram rail_urban rail rail_electric rail_fast ship container cable_car subway aircraft wheelchair scooter drone" speed="13.89" length="18.00" width="4.00" shape="130.44,63.64 148.44,63.63">
            <param key="signalID" value="460 462"/>
        </lane>
    </edge>
    <edge id=":132_5" function="internal">
        <lane id=":132_5_0" index="0" disallow="pedestrian tram rail_urban rail rail_electric rail_fast ship container cable_car subway aircraft wheelchair scooter drone" speed="8.92" length="5.66" width="4.00" shape="130.44,63.64 135.31,64.31 135.95,64.68">
            <param key="signalID" value="460 463"/>
        </lane>
    </edge>
    <edge id=":132_6" function="internal">
        <lane id=":132_6_0" index="0" disallow="pedestrian tram rail_urban rail rail_electric rail_fast ship container cable_car subway aircraft wheelchair scooter drone" speed="8.92" length="11.98" width="4.00" shape="135.95,64.68 138.79,66.32 140.88,69.68 141.58,74.38">
            <param key="signalID" value="460 463"/>
        </lane>
    </edge>
    <edge id=":16.1_0" function="internal">
        <lane id=":16.1_0_0" index="0" disallow="pedestrian tram rail_urban rail rail_electric rail_fast ship container cable_car subway aircraft wheelchair scooter drone" speed="13.89" length="0.10" width="4.00" shape="-1.90,187.01 -1.90,187.01"/>
    </edge>
    <edge id=":16.1_1" function="internal">
        <lane id=":16.1_1_0" index="0" disallow="pedestrian tram rail_urban rail rail_electric rail_fast ship container cable_car subway aircraft wheelchair scooter drone" speed="13.89" length="0.10" width="4.00" shape="2.10,187.00 2.10,187.00">
            <param key="signalID" value="478"/>
        </lane>
    </edge>
    <edge id=":16.12_0" function="internal">
        <lane id=":16.12_0_0" index="0" disallow="pedestrian tram rail_urban rail rail_electric rail_fast ship container cable_car subway aircraft wheelchair scooter drone" speed="13.89" length="0.10" width="4.00" shape="10.25,199.01 10.16,199.01"/>
    </edge>
    <edge id=":16.12_1" function="internal">
        <lane id=":16.12_1_0" index="0" disallow="pedestrian tram rail_urban rail rail_electric rail_fast ship container cable_car subway aircraft wheelchair scooter drone" speed="13.89" length="0.10" width="4.00" shape="10.36,195.01 10.27,195.01"/>
    </edge>
    <edge id=":17.13_0" function="internal">
        <lane id=":17.13_0_0" index="0" disallow="pedestrian tram rail_urban rail rail_electric rail_fast ship container cable_car subway aircraft wheelchair scooter drone" speed="13.89" length="0.17" width="4.00" shape="195.13,9.98 195.13,9.93 195.13,9.90 195.13,9.86 195.13,9.81">
            <param key="signalID" value="456"/>
        </lane>
    </edge>
    <edge id=":17.13_1" function="internal">
        <lane id=":17.13_1_0" index="0" disallow="pedestrian tram rail_urban rail rail_electric rail_fast ship container cable_car subway aircraft wheelchair scooter drone" speed="13.89" length="0.63" width="4.00" shape="199.11,9.35 199.13,9.53 199.13,9.66 199.13,9.79 199.13,9.98"/>
    </edge>
    <edge id=":188_0" function="internal">
        <lane id=":188_0_0" index="0" disallow="pedestrian tram rail_urban rail rail_electric rail_fast ship container cable_car subway aircraft wheelchair scooter drone" speed="13.89" length="18.00" width="4.00" shape="58.16,116.98 40.16,116.99">
            <param key="signalID" value="467 472"/>
        </lane>
    </edge>
    <edge id=":188_1" function="internal">
        <lane id=":188_1_0" index="0" disallow="pedestrian tram rail_urban rail rail_electric rail_fast ship container cable_car subway aircraft wheelchair scooter drone" speed="9.04" length="5.37" width="4.00" shape="58.16,116.98 53.41,116.26 52.93,115.95">
            <param key="signalID" value="467 472"/>
        </lane>
    </edge>
    <edge id=":188_6" function="internal">
        <lane id=":188_6_0" index="0" disallow="pedestrian tram rail_urban rail rail_electric rail_fast ship container cable_car subway aircraft wheelchair scooter drone" speed="9.04" length="12.77" width="4.00" shape="52.93,115.95 50.02,114.08 47.99,110.44 47.31,105.35">
            <param key="signalID" value="467 472"/>
        </lane>
    </edge>
    <edge id=":188_2" function="internal">
        <lane id=":188_2_0" index="0" disallow="pedestrian tram rail_urban rail rail_electric rail_fast ship container cable_car subway aircraft wheelchair scooter drone" speed="7.39" length="11.69" width="4.00" shape="51.31,105.35 51.74,108.69 53.02,111.08 55.16,112.51 58.16,112.98">
            <param key="signalID" value="466 461"/>
        </lane>
    </edge>
    <edge id=":188_3" function="internal">
        <lane id=":188_3_0" index="0" disallow="pedestrian tram rail_urban rail rail_electric rail_fast ship container cable_car subway aircraft wheelchair scooter drone" speed="9.10" length="18.38" width="4.00" shape="51.31,105.35 50.61,110.44 48.52,114.08 45.04,116.26 40.16,116.99">
            <param key="signalID" value="466 461"/>
        </lane>
    </edge>
    <edge id=":188_4" function="internal">
        <lane id=":188_4_0" index="0" disallow="pedestrian tram rail_urban rail rail_electric rail_fast ship container cable_car subway aircraft wheelchair scooter drone" speed="7.46" length="11.93" width="4.00" shape="40.16,112.99 43.29,112.51 45.52,111.08 46.86,108.69 47.31,105.35">
            <param key="signalID" value="465 477"/>
        </lane>
    </edge>
    <edge id=":188_5" function="internal">
        <lane id=":188_5_0" index="0" disallow="pedestrian tram rail_urban rail rail_electric rail_fast ship container cable_car subway aircraft wheelchair scooter drone" speed="13.89" length="18.00" width="4.00" shape="40.16,112.99 58.16,112.98">
            <param key="signalID" value="465 477"/>
        </lane>
    </edge>
    <edge id=":19.17_0" function="internal">
        <lane id=":19.17_0_0" index="0" disallow="pedestrian tram rail_urban rail rail_electric rail_fast ship container cable_car subway aircraft wheelchair scooter drone" speed="13.89" length="0.12" width="4.00" shape="186.28,2.06 186.16,2.06"/>
    </edge>
    <edge id=":19.17_1" function="internal">
        <lane id=":19.17_1_0" index="0" disallow="pedestrian tram rail_urban rail rail_electric rail_fast ship container cable_car subway aircraft wheelchair scooter drone" speed="13.89" length="0.36" width="4.00" shape="186.16,-1.94 186.52,-1.93">
            <param key="signalID" value="476"/>
        </lane>
    </edge>
    <edge id=":2.0_0" function="internal">
        <lane id=":2.0_0_0" index="0" disallow="pedestrian tram rail_urban rail rail_electric rail_fast ship container cable_car subway aircraft wheelchair scooter drone" speed="13.89" length="0.10" width="4.00" shape="2.09,9.86 2.09,9.86"/>
    </edge>
    <edge id=":2.0_1" function="internal">
        <lane id=":2.0_1_0" index="0" disallow="pedestrian tram rail_urban rail rail_electric rail_fast ship container cable_car subway aircraft wheelchair scooter drone" speed="13.89" length="0.10" width="4.00" shape="-1.91,9.86 -1.91,9.86">
            <param key="signalID" value="479"/>
        </lane>
    </edge>
    <edge id=":2.18_0" function="internal">
        <lane id=":2.18_0_0" index="0" disallow="pedestrian tram rail_urban rail rail_electric rail_fast ship container cable_car subway aircraft wheelchair scooter drone" speed="13.89" length="0.10" width="4.00" shape="10.08,2.00 10.08,2.00">
            <param key="signalID" value="474"/>
        </lane>
    </edge>
    <edge id=":2.18_1" function="internal">
        <lane id=":2.18_1_0" index="0" disallow="pedestrian tram rail_urban rail rail_electric rail_fast ship container cable_car subway aircraft wheelchair scooter drone" speed="13.89" length="0.10" width="4.00" shape="10.08,-2.00 10.08,-2.00"/>
    </edge>
    <edge id=":20_0" function="internal">
        <lane id=":20_0_0" index="0" disallow="pedestrian tram rail_urban rail rail_electric rail_fast ship container cable_car subway aircraft wheelchair scooter drone" speed="13.89" length="18.00" width="4.00" shape="199.16,56.21 199.16,74.21">
            <param key="signalID" value="456"/>
        </lane>
    </edge>
    <edge id=":20_1" function="internal">
        <lane id=":20_1_0" index="0" disallow="pedestrian tram rail_urban rail rail_electric rail_fast ship container cable_car subway aircraft wheelchair scooter drone" speed="9.06" length="5.71" width="4.00" shape="199.16,56.21 198.46,61.19 198.12,61.78">
            <param key="signalID" value="456"/>
        </lane>
    </edge>
    <edge id=":20_6" function="internal">
        <lane id=":20_6_0" index="0" disallow="pedestrian tram rail_urban rail rail_electric rail_fast ship container cable_car subway aircraft wheelchair scooter drone" speed="9.06" length="12.49" width="4.00" shape="198.12,61.78 196.36,64.75 192.87,66.89 187.98,67.61">
            <param key="signalID" value="456"/>
        </lane>
    </edge>
    <edge id=":20_2" function="internal">
        <lane id=":20_2_0" index="0" disallow="pedestrian tram rail_urban rail rail_electric rail_fast ship container cable_car subway aircraft wheelchair scooter drone" speed="7.41" length="11.75" width="4.00" shape="187.98,63.61 191.12,63.14 193.36,61.76 194.71,59.44 195.16,56.21">
            <param key="signalID" value="464 457"/>
        </lane>
    </edge>
    <edge id=":20_3" function="internal">
        <lane id=":20_3_0" index="0" disallow="pedestrian tram rail_urban rail rail_electric rail_fast ship container cable_car subway aircraft wheelchair scooter drone" speed="8.90" length="17.57" width="4.00" shape="187.98,63.61 192.87,64.27 196.36,66.25 198.46,69.57 199.16,74.21">
            <param key="signalID" value="464 458"/>
        </lane>
    </edge>
    <edge id=":20_4" function="internal">
        <lane id=":20_4_0" index="0" disallow="pedestrian tram rail_urban rail rail_electric rail_fast ship container cable_car subway aircraft wheelchair scooter drone" speed="7.22" length="11.12" width="4.00" shape="195.16,74.21 194.71,71.32 193.36,69.26 191.12,68.02 187.98,67.61">
            <param key="signalID" value="468 457"/>
        </lane>
    </edge>
    <edge id=":20_5" function="internal">
        <lane id=":20_5_0" index="0" disallow="pedestrian tram rail_urban rail rail_electric rail_fast ship container cable_car subway aircraft wheelchair scooter drone" speed="13.89" length="18.00" width="4.00" shape="195.16,74.21 195.16,56.21">
            <param key="signalID" value="468 458"/>
        </lane>
    </edge>
    <edge id=":242_0" function="internal">
        <lane id=":242_0_0" index="0" disallow="pedestrian tram rail_urban rail rail_electric rail_fast ship container cable_car subway aircraft wheelchair scooter drone" speed="13.89" length="18.00" width="4.00" shape="199.15,105.47 199.14,123.47">
            <param key="signalID" value="458 468"/>
        </lane>
    </edge>
    <edge id=":242_1" function="internal">
        <lane id=":242_1_0" index="0" disallow="pedestrian tram rail_urban rail rail_electric rail_fast ship container cable_car subway aircraft wheelchair scooter drone" speed="9.06" length="5.75" width="4.00" shape="199.15,105.47 198.45,110.48 198.10,111.07">
            <param key="signalID" value="458 468"/>
        </lane>
    </edge>
    <edge id=":242_6" function="internal">
        <lane id=":242_6_0" index="0" disallow="pedestrian tram rail_urban rail rail_electric rail_fast ship container cable_car subway aircraft wheelchair scooter drone" speed="9.06" length="12.48" width="4.00" shape="198.10,111.07 196.36,114.06 192.88,116.21 188.00,116.92">
            <param key="signalID" value="458 468"/>
        </lane>
    </edge>
    <edge id=":242_2" function="internal">
        <lane id=":242_2_0" index="0" disallow="pedestrian tram rail_urban rail rail_electric rail_fast ship container cable_car subway aircraft wheelchair scooter drone" speed="7.42" length="11.78" width="4.00" shape="188.00,112.92 191.13,112.46 193.36,111.06 194.70,108.73 195.15,105.47">
            <param key="signalID" value="469 473"/>
        </lane>
    </edge>
    <edge id=":242_3" function="internal">
        <lane id=":242_3_0" index="0" disallow="pedestrian tram rail_urban rail rail_electric rail_fast ship container cable_car subway aircraft wheelchair scooter drone" speed="8.89" length="17.50" width="4.00" shape="188.00,112.92 192.88,113.58 196.36,115.56 198.45,118.86 199.14,123.47">
            <param key="signalID" value="469 473"/>
        </lane>
    </edge>
    <edge id=":242_4" function="internal">
        <lane id=":242_4_0" index="0" disallow="pedestrian tram rail_urban rail rail_electric rail_fast ship container cable_car subway aircraft wheelchair scooter drone" speed="7.20" length="11.04" width="4.00" shape="195.14,123.47 194.70,120.61 193.36,118.56 191.13,117.33 188.00,116.92">
            <param key="signalID" value="470"/>
        </lane>
    </edge>
    <edge id=":242_5" function="internal">
        <lane id=":242_5_0" index="0" disallow="pedestrian tram rail_urban rail rail_electric rail_fast ship container cable_car subway aircraft wheelchair scooter drone" speed="13.89" length="18.00" width="4.00" shape="195.14,123.47 195.15,105.47">
            <param key="signalID" value="470"/>
        </lane>
    </edge>
    <edge id=":298_0" function="internal">
        <lane id=":298_0_0" index="0" disallow="pedestrian tram rail_urban rail rail_electric rail_fast ship container cable_car subway aircraft wheelchair scooter drone" speed="13.89" length="21.92" width="4.00" shape="150.56,116.94 128.64,116.95">
            <param key="signalID" value="473 469"/>
        </lane>
    </edge>
    <edge id=":298_1" function="internal">
        <lane id=":298_1_0" index="0" disallow="pedestrian tram rail_urban rail rail_electric rail_fast ship container cable_car subway aircraft wheelchair scooter drone" speed="9.41" length="6.40" width="4.00" shape="150.56,116.94 144.90,116.22 144.29,115.89">
            <param key="signalID" value="473 469"/>
        </lane>
    </edge>
    <edge id=":298_6" function="internal">
        <lane id=":298_6_0" index="0" disallow="pedestrian tram rail_urban rail rail_electric rail_fast ship container cable_car subway aircraft wheelchair scooter drone" speed="9.41" length="13.36" width="4.00" shape="144.29,115.89 140.85,114.06 138.42,110.45 137.61,105.40">
            <param key="signalID" value="473 469"/>
        </lane>
    </edge>
    <edge id=":298_2" function="internal">
        <lane id=":298_2_0" index="0" disallow="pedestrian tram rail_urban rail rail_electric rail_fast ship container cable_car subway aircraft wheelchair scooter drone" speed="7.84" length="13.32" width="4.00" shape="141.61,105.40 142.17,108.70 143.85,111.06 146.65,112.47 150.56,112.94">
            <param key="signalID" value="471 463"/>
        </lane>
    </edge>
    <edge id=":298_3" function="internal">
        <lane id=":298_3_0" index="0" disallow="pedestrian tram rail_urban rail rail_electric rail_fast ship container cable_car subway aircraft wheelchair scooter drone" speed="9.41" length="19.79" width="4.00" shape="141.61,105.40 140.80,110.45 138.37,114.06 134.32,116.23 128.64,116.95">
            <param key="signalID" value="471 463"/>
        </lane>
    </edge>
    <edge id=":298_4" function="internal">
        <lane id=":298_4_0" index="0" disallow="pedestrian tram rail_urban rail rail_electric rail_fast ship container cable_car subway aircraft wheelchair scooter drone" speed="7.84" length="13.34" width="4.00" shape="128.64,112.95 132.57,112.48 135.37,111.06 137.05,108.70 137.61,105.40">
            <param key="signalID" value="472 467"/>
        </lane>
    </edge>
    <edge id=":298_5" function="internal">
        <lane id=":298_5_0" index="0" disallow="pedestrian tram rail_urban rail rail_electric rail_fast ship container cable_car subway aircraft wheelchair scooter drone" speed="13.89" length="21.92" width="4.00" shape="128.64,112.95 150.56,112.94">
            <param key="signalID" value="472 467"/>
        </lane>
    </edge>
    <edge id=":3.12_0" function="internal">
        <lane id=":3.12_0_0" index="0" disallow="pedestrian tram rail_urban rail rail_electric rail_fast ship container cable_car subway aircraft wheelchair scooter drone" speed="13.89" length="0.58" width="4.00" shape="187.40,199.11 187.23,199.13 187.11,199.14 186.99,199.14 186.82,199.14"/>
    </edge>
    <edge id=":3.12_1" function="internal">
        <lane id=":3.12_1_0" index="0" disallow="pedestrian tram rail_urban rail rail_electric rail_fast ship container cable_car subway aircraft wheelchair scooter drone" speed="13.89" length="0.19" width="4.00" shape="186.82,195.14 186.88,195.14 186.92,195.14 186.96,195.14 187.01,195.13"/>
    </edge>
    <edge id=":3.15_0" function="internal">
        <lane id=":3.15_0_0" index="0" disallow="pedestrian tram rail_urban rail rail_electric rail_fast ship container cable_car subway aircraft wheelchair scooter drone" speed="13.89" length="0.34" width="4.00" shape="195.20,186.69 195.20,186.35"/>
    </edge>
    <edge id=":3.15_1" function="internal">
        <lane id=":3.15_1_0" index="0" disallow="pedestrian tram rail_urban rail rail_electric rail_fast ship container cable_car subway aircraft wheelchair scooter drone" speed="13.89" length="0.34" width="4.00" shape="199.20,186.34 199.20,186.68">
            <param key="signalID" value="470"/>
        </lane>
    </edge>
    <edge id=":349_0" function="internal">
        <lane id=":349_0_0" index="0" disallow="pedestrian tram rail_urban rail rail_electric rail_fast ship container cable_car subway aircraft wheelchair scooter drone" speed="7.13" length="10.78" width="4.00" shape="58.12,2.03 55.15,2.44 53.02,3.67 51.74,5.73 51.32,8.60">
            <param key="signalID" value="475"/>
        </lane>
    </edge>
    <edge id=":349_1" function="internal">
        <lane id=":349_1_0" index="0" disallow="pedestrian tram rail_urban rail rail_electric rail_fast ship container cable_car subway aircraft wheelchair scooter drone" speed="13.89" length="18.00" width="4.00" shape="58.12,2.03 40.12,2.02">
            <param key="signalID" value="476"/>
        </lane>
    </edge>
    <edge id=":349_2" function="internal">
        <lane id=":349_2_0" index="0" disallow="pedestrian tram rail_urban rail rail_electric rail_fast ship container cable_car subway aircraft wheelchair scooter drone" speed="13.89" length="18.00" width="4.00" shape="40.12,-1.98 58.12,-1.97">
            <param key="signalID" value="474"/>
        </lane>
    </edge>
    <edge id=":349_3" function="internal">
        <lane id=":349_3_0" index="0" disallow="pedestrian tram rail_urban rail rail_electric rail_fast ship container cable_car subway aircraft wheelchair scooter drone" speed="8.91" length="5.72" width="4.00" shape="40.12,-1.98 45.02,-1.31 45.70,-0.93">
            <param key="signalID" value="474"/>
        </lane>
    </edge>
    <edge id=":349_6" function="internal">
        <lane id=":349_6_0" index="0" disallow="pedestrian tram rail_urban rail rail_electric rail_fast ship container cable_car subway aircraft wheelchair scooter drone" speed="8.91" length="11.84" width="4.00" shape="45.70,-0.93 48.52,0.67 50.62,3.98 51.32,8.60">
            <param key="signalID" value="474"/>
        </lane>
    </edge>
    <edge id=":349_4" function="internal">
        <lane id=":349_4_0" index="0" disallow="pedestrian tram rail_urban rail rail_electric rail_fast ship container cable_car subway aircraft wheelchair scooter drone" speed="7.23" length="11.11" width="4.00" shape="47.32,8.60 46.87,5.72 45.52,3.67 43.27,2.43 40.12,2.02">
            <param key="signalID" value="475 459"/>
        </lane>
    </edge>
    <edge id=":349_5" function="internal">
        <lane id=":349_5_0" index="0" disallow="pedestrian tram rail_urban rail rail_electric rail_fast ship container cable_car subway aircraft wheelchair scooter drone" speed="8.83" length="17.23" width="4.00" shape="47.32,8.60 47.99,3.98 50.02,0.67 53.39,-1.31 58.12,-1.97">
            <param key="signalID" value="476 459"/>
        </lane>
    </edge>
    <edge id=":400_0" function="internal">
        <lane id=":400_0_0" index="0" disallow="pedestrian tram rail_urban rail rail_electric rail_fast ship container cable_car subway aircraft wheelchair scooter drone" speed="7.08" length="10.62" width="4.00" shape="8.86,117.01 5.86,117.40 3.72,118.59 2.43,120.56 2.00,123.32">
            <param key="signalID" value="465 478"/>
        </lane>
    </edge>
    <edge id=":400_1" function="internal">
        <lane id=":400_1_0" index="0" disallow="pedestrian tram rail_urban rail rail_electric rail_fast ship container cable_car subway aircraft wheelchair scooter drone" speed="9.05" length="18.18" width="4.00" shape="8.86,117.01 4.11,116.28 0.72,114.09 -1.31,110.44 -1.99,105.32">
            <param key="signalID" value="465 477"/>
        </lane>
    </edge>
    <edge id=":400_2" function="internal">
        <lane id=":400_2_0" index="0" disallow="pedestrian tram rail_urban rail rail_electric rail_fast ship container cable_car subway aircraft wheelchair scooter drone" speed="7.40" length="11.73" width="4.00" shape="2.01,105.32 2.44,108.68 3.72,111.09 5.86,112.53 8.86,113.01">
            <param key="signalID" value="479"/>
        </lane>
    </edge>
    <edge id=":400_3" function="internal">
        <lane id=":400_3_0" index="0" disallow="pedestrian tram rail_urban rail rail_electric rail_fast ship container cable_car subway aircraft wheelchair scooter drone" speed="13.89" length="18.00" width="4.00" shape="2.01,105.32 2.00,123.32">
            <param key="signalID" value="479"/>
        </lane>
    </edge>
    <edge id=":400_4" function="internal">
        <lane id=":400_4_0" index="0" disallow="pedestrian tram rail_urban rail rail_electric rail_fast ship container cable_car subway aircraft wheelchair scooter drone" speed="13.89" length="18.00" width="4.00" shape="-2.00,123.32 -1.99,105.32">
            <param key="signalID" value="478"/>
        </lane>
    </edge>
    <edge id=":400_5" function="internal">
        <lane id=":400_5_0" index="0" disallow="pedestrian tram rail_urban rail rail_electric rail_fast ship container cable_car subway aircraft wheelchair scooter drone" speed="8.79" length="5.23" width="4.00" shape="-2.00,123.32 -1.32,118.81 -0.96,118.24">
            <param key="signalID" value="477"/>
        </lane>
    </edge>
    <edge id=":400_6" function="internal">
        <lane id=":400_6_0" index="0" disallow="pedestrian tram rail_urban rail rail_electric rail_fast ship container cable_car subway aircraft wheelchair scooter drone" speed="8.79" length="11.84" width="4.00" shape="-0.96,118.24 0.72,115.59 4.11,113.65 8.86,113.01">
            <param key="signalID" value="477"/>
        </lane>
    </edge>
    <edge id=":76_0" function="internal">
        <lane id=":76_0_0" index="0" disallow="pedestrian tram rail_urban rail rail_electric rail_fast ship container cable_car subway aircraft wheelchair scooter drone" speed="8.19" length="14.64" width="4.00" shape="60.18,67.68 56.30,68.27 53.53,70.01 51.87,72.91 51.31,76.97">
            <param key="signalID" value="462 460"/>
        </lane>
    </edge>
    <edge id=":76_1" function="internal">
        <lane id=":76_1_0" index="0" disallow="pedestrian tram rail_urban rail rail_electric rail_fast ship container cable_car subway aircraft wheelchair scooter drone" speed="9.30" length="19.29" width="4.00" shape="60.18,67.68 54.55,67.00 50.53,64.93 48.12,61.49 47.31,56.66">
            <param key="signalID" value="462 460"/>
        </lane>
    </edge>
    <edge id=":76_2" function="internal">
        <lane id=":76_2_0" index="0" disallow="pedestrian tram rail_urban rail rail_electric rail_fast ship container cable_car subway aircraft wheelchair scooter drone" speed="7.71" length="12.85" width="4.00" shape="51.31,56.66 51.87,59.74 53.53,61.93 56.30,63.25 60.18,63.68">
            <param key="signalID" value="459 475"/>
        </lane>
    </edge>
    <edge id=":76_3" function="internal">
        <lane id=":76_3_0" index="0" disallow="pedestrian tram rail_urban rail rail_electric rail_fast ship container cable_car subway aircraft wheelchair scooter drone" speed="13.89" length="20.31" width="4.00" shape="51.31,56.66 51.31,76.97">
            <param key="signalID" value="475 459"/>
        </lane>
    </edge>
    <edge id=":76_4" function="internal">
        <lane id=":76_4_0" index="0" disallow="pedestrian tram rail_urban rail rail_electric rail_fast ship container cable_car subway aircraft wheelchair scooter drone" speed="13.89" length="20.31" width="4.00" shape="47.31,76.97 47.31,56.66">
            <param key="signalID" value="466 461"/>
        </lane>
    </edge>
    <edge id=":76_5" function="internal">
        <lane id=":76_5_0" index="0" disallow="pedestrian tram rail_urban rail rail_electric rail_fast ship container cable_car subway aircraft wheelchair scooter drone" speed="9.70" length="6.34" width="4.00" shape="47.31,76.97 48.12,71.16 48.36,70.75">
            <param key="signalID" value="461 466"/>
        </lane>
    </edge>
    <edge id=":76_6" function="internal">
        <lane id=":76_6_0" index="0" disallow="pedestrian tram rail_urban rail rail_electric rail_fast ship container cable_car subway aircraft wheelchair scooter drone" speed="9.70" length="14.74" width="4.00" shape="48.36,70.75 50.53,67.01 54.55,64.52 60.18,63.68">
            <param key="signalID" value="461 466"/>
        </lane>
    </edge>

    <edge id="-0" from="2.0" to="400" priority="1" type="driving" shape="0.09,9.86 0.09,11.85 0.08,13.84 0.08,15.83 0.08,17.81 0.07,19.80 0.07,21.79 0.07,23.78 0.06,25.77 0.06,27.75 0.06,29.74 0.06,31.73 0.05,33.72 0.05,35.71 0.05,37.69 0.04,39.68 0.04,41.67 0.04,43.66 0.03,45.65 0.03,47.64 0.03,49.62 0.02,51.61 0.02,53.60 0.02,54.28 0.02,56.24 0.02,58.21 0.02,60.17 0.02,62.13 0.02,64.10 0.02,66.06 0.02,68.02 0.02,69.99 0.02,71.95 0.02,73.91 0.01,75.87 0.01,77.84 0.01,79.80 0.01,81.76 0.01,83.73 0.01,85.69 0.01,87.65 0.01,89.62 0.01,91.58 0.01,93.54 0.01,95.51 0.01,97.47 0.01,99.43 0.01,101.39 0.01,103.36 0.01,105.32">
        <lane id="-0_0" index="0" disallow="pedestrian tram rail_urban rail rail_electric rail_fast ship container cable_car subway aircraft wheelchair scooter drone" speed="13.89" length="95.46" width="4.00" shape="2.09,9.86 2.09,11.85 2.08,13.84 2.08,15.83 2.08,17.82 2.07,19.80 2.07,21.79 2.07,23.78 2.06,25.77 2.06,27.76 2.06,29.75 2.06,31.73 2.05,33.72 2.05,35.71 2.05,37.70 2.04,39.69 2.04,41.67 2.04,43.66 2.03,45.65 2.03,47.64 2.03,49.63 2.02,51.62 2.02,53.60 2.02,54.28 2.02,56.24 2.02,58.21 2.02,60.17 2.02,62.13 2.02,64.10 2.02,66.06 2.02,68.02 2.02,69.99 2.02,71.95 2.02,73.91 2.01,75.88 2.01,77.84 2.01,79.80 2.01,81.76 2.01,83.73 2.01,85.69 2.01,87.65 2.01,89.62 2.01,91.58 2.01,93.54 2.01,95.51 2.01,97.47 2.01,99.43 2.01,101.40 2.01,103.36 2.01,105.32" type="driving"/>
    </edge>