<?xml version="1.0" encoding="UTF-8"?>

<!-- generated on 2025-01-09 11:39:50 by Eclipse SUMO netconvert Version 1.20.0
<configuration xmlns:xsi="http://www.w3.org/2001/XMLSchema-instance" xsi:noNamespaceSchemaLocation="http://sumo.dlr.de/xsd/netconvertConfiguration.xsd">

    <input>
        <opendrive-files value="Town04.xodr"/>
    </input>

    <output>
        <output-file value="Town04.net.xml"/>
    </output>

    <junctions>
        <no-turnarounds.except-deadend value="true"/>
    </junctions>

</configuration>
-->

<net version="1.20" junctionCornerDetail="5" rectangularLaneCut="true" limitTurnSpeed="5.50" xmlns:xsi="http://www.w3.org/2001/XMLSchema-instance" xsi:noNamespaceSchemaLocation="http://sumo.dlr.de/xsd/net_file.xsd">

    <location netOffset="503.02,423.76" convBoundary="0.00,0.00,904.91,807.65" origBoundary="0.000000,0.000000,0.000000,0.000000" projParameter="+proj=tmerc +lat_0=0 +lon_0=0 +k=1 +x_0=0 +y_0=0 +datum=WGS84 +units=m +geoidgrids=egm96_15.gtx +vunits=m +no_defs "/>

    <type id="driving" priority="1" speed="13.89" disallow="pedestrian tram rail_urban rail rail_electric rail_fast ship container cable_car subway aircraft wheelchair scooter drone" width="3.65"/>

    <edge id=":1008_0" function="internal">
        <lane id=":1008_0_0" index="0" disallow="pedestrian tram rail_urban rail rail_electric rail_fast ship container cable_car subway aircraft wheelchair scooter drone" speed="7.53" length="12.46" width="3.50" shape="757.82,553.48,0.02 757.30,550.27,0.02 755.76,548.00,0.02 753.21,546.67,0.02 749.64,546.27,0.02">
            <param key="signalID" value="1634 1636"/>
        </lane>
    </edge>
    <edge id=":1008_1" function="internal">
        <lane id=":1008_1_0" index="0" disallow="pedestrian tram rail_urban rail rail_electric rail_fast ship container cable_car subway aircraft wheelchair scooter drone" speed="9.24" length="18.98" width="3.50" shape="757.82,553.48,0.02 758.59,548.72,0.02 760.94,545.30,0.02 764.87,543.20,0.02 770.37,542.43,0.02">
            <param key="signalID" value="1634"/>
        </lane>
    </edge>
    <edge id=":1008_2" function="internal">
        <lane id=":1008_2_0" index="0" disallow="pedestrian tram rail_urban rail rail_electric rail_fast ship container cable_car subway aircraft wheelchair scooter drone" speed="7.85" length="13.39" width="3.50" shape="770.43,545.93,0.02 766.43,546.46,0.02 763.59,547.89,0.02 761.88,550.23,0.02 761.32,553.47,0.02">
            <param key="signalID" value="1636"/>
        </lane>
    </edge>
    <edge id=":1008_3" function="internal">
        <lane id=":1008_3_0" index="0" disallow="pedestrian tram rail_urban rail rail_electric rail_fast ship container cable_car subway aircraft wheelchair scooter drone" speed="13.89" length="20.79" width="3.50" shape="770.43,545.93,0.02 749.64,546.27,0.02">
            <param key="signalID" value="1634"/>
        </lane>
    </edge>
    <edge id=":1008_4" function="internal">
        <lane id=":1008_4_0" index="0" disallow="pedestrian tram rail_urban rail rail_electric rail_fast ship container cable_car subway aircraft wheelchair scooter drone" speed="13.89" length="20.79" width="3.50" shape="749.58,542.77,0.02 770.37,542.43,0.02">
            <param key="signalID" value="1636 1635 1635"/>
        </lane>
    </edge>
    <edge id=":1008_5" function="internal">
        <lane id=":1008_5_0" index="0" disallow="pedestrian tram rail_urban rail rail_electric rail_fast ship container cable_car subway aircraft wheelchair scooter drone" speed="8.96" length="5.39" width="3.50" shape="749.58,542.77,0.02 754.71,543.37,0.02 754.91,543.48,0.02">
            <param key="signalID" value="1635"/>
        </lane>
    </edge>
    <edge id=":1008_6" function="internal">
        <lane id=":1008_6_0" index="0" disallow="pedestrian tram rail_urban rail rail_electric rail_fast ship container cable_car subway aircraft wheelchair scooter drone" speed="8.96" length="12.77" width="3.50" shape="754.91,543.48,0.02 758.37,545.35,0.02 760.58,548.71,0.02 761.32,553.47,0.02">
            <param key="signalID" value="1635"/>
        </lane>
    </edge>
    <edge id=":1061_0" function="internal">
        <lane id=":1061_0_0" index="0" disallow="pedestrian tram rail_urban rail rail_electric rail_fast ship container cable_car subway aircraft wheelchair scooter drone" speed="13.89" length="73.02" width="3.50" shape="537.61,290.99 529.46,301.04 523.60,315.84 520.04,335.38 518.76,359.65"/>
    </edge>
    <edge id=":1061_1" function="internal">
        <lane id=":1061_1_0" index="0" disallow="pedestrian tram rail_urban rail rail_electric rail_fast ship container cable_car subway aircraft wheelchair scooter drone" speed="13.89" length="77.17" width="3.50" shape="519.15,282.48 518.76,359.65"/>
        <lane id=":1061_1_1" index="1" disallow="pedestrian tram rail_urban rail rail_electric rail_fast ship container cable_car subway aircraft wheelchair scooter drone" speed="13.89" length="77.17" width="3.50" shape="515.65,282.46 515.26,359.63"/>
        <lane id=":1061_1_2" index="2" disallow="pedestrian tram rail_urban rail rail_electric rail_fast ship container cable_car subway aircraft wheelchair scooter drone" speed="13.89" length="77.17" width="3.50" shape="512.15,282.44 511.76,359.61"/>
        <lane id=":1061_1_3" index="3" disallow="pedestrian tram rail_urban rail rail_electric rail_fast ship container cable_car subway aircraft wheelchair scooter drone" speed="13.89" length="77.17" width="3.50" shape="508.65,282.42 508.26,359.60"/>
    </edge>
    <edge id=":1061_5" function="internal">
        <lane id=":1061_5_0" index="0" disallow="pedestrian tram rail_urban rail rail_electric rail_fast ship container cable_car subway aircraft wheelchair scooter drone" speed="13.89" length="72.98" width="3.50" shape="487.26,359.49 486.23,335.04,0.00 482.87,315.42,0.00 477.19,300.64,0.00 469.18,290.69,0.00"/>
    </edge>
    <edge id=":1061_6" function="internal">
        <lane id=":1061_6_0" index="0" disallow="pedestrian tram rail_urban rail rail_electric rail_fast ship container cable_car subway aircraft wheelchair scooter drone" speed="13.89" length="77.18" width="3.50" shape="487.26,359.49 487.65,282.32"/>
        <lane id=":1061_6_1" index="1" disallow="pedestrian tram rail_urban rail rail_electric rail_fast ship container cable_car subway aircraft wheelchair scooter drone" speed="13.89" length="77.18" width="3.50" shape="490.76,359.51 491.15,282.33"/>
        <lane id=":1061_6_2" index="2" disallow="pedestrian tram rail_urban rail rail_electric rail_fast ship container cable_car subway aircraft wheelchair scooter drone" speed="13.89" length="77.18" width="3.50" shape="494.26,359.53 494.65,282.35"/>
        <lane id=":1061_6_3" index="3" disallow="pedestrian tram rail_urban rail rail_electric rail_fast ship container cable_car subway aircraft wheelchair scooter drone" speed="13.89" length="77.18" width="3.50" shape="497.76,359.54 498.15,282.37"/>
    </edge>
    <edge id=":1082_0" function="internal">
        <lane id=":1082_0_0" index="0" disallow="pedestrian tram rail_urban rail rail_electric rail_fast ship container cable_car subway aircraft wheelchair scooter drone" speed="13.89" length="59.12" width="3.50" shape="622.74,437.88,10.31 613.31,428.87,10.46 601.27,422.45,10.62 586.62,418.63,10.79 569.38,417.40,10.99"/>
    </edge>
    <edge id=":1082_1" function="internal">
        <lane id=":1082_1_0" index="0" disallow="pedestrian tram rail_urban rail rail_electric rail_fast ship container cable_car subway aircraft wheelchair scooter drone" speed="13.89" length="62.20" width="3.50" shape="631.64,416.75,10.05 569.38,417.40,10.99"/>
        <lane id=":1082_1_1" index="1" disallow="pedestrian tram rail_urban rail rail_electric rail_fast ship container cable_car subway aircraft wheelchair scooter drone" speed="13.89" length="62.20" width="3.50" shape="631.58,413.25,10.05 569.36,413.90,10.99"/>
        <lane id=":1082_1_2" index="2" disallow="pedestrian tram rail_urban rail rail_electric rail_fast ship container cable_car subway aircraft wheelchair scooter drone" speed="13.89" length="62.20" width="3.50" shape="631.52,409.75,10.05 569.35,410.40,10.99"/>
        <lane id=":1082_1_3" index="3" disallow="pedestrian tram rail_urban rail rail_electric rail_fast ship container cable_car subway aircraft wheelchair scooter drone" speed="13.89" length="62.20" width="3.50" shape="631.46,406.25,10.05 569.33,406.90,10.99"/>
    </edge>
    <edge id=":1082_5" function="internal">
        <lane id=":1082_5_0" index="0" disallow="pedestrian tram rail_urban rail rail_electric rail_fast ship container cable_car subway aircraft wheelchair scooter drone" speed="13.89" length="59.50" width="3.50" shape="569.25,385.91,10.99 586.75,384.51,10.68 601.45,380.46,10.42 613.35,373.77,10.18 622.45,364.44,9.95"/>
    </edge>
    <edge id=":1082_6" function="internal">
        <lane id=":1082_6_0" index="0" disallow="pedestrian tram rail_urban rail rail_electric rail_fast ship container cable_car subway aircraft wheelchair scooter drone" speed="13.89" length="61.93" width="3.50" shape="569.25,385.91,10.99 631.10,385.26,10.05"/>
        <lane id=":1082_6_1" index="1" disallow="pedestrian tram rail_urban rail rail_electric rail_fast ship container cable_car subway aircraft wheelchair scooter drone" speed="13.89" length="61.93" width="3.50" shape="569.26,389.41,10.99 631.16,388.76,10.05"/>
        <lane id=":1082_6_2" index="2" disallow="pedestrian tram rail_urban rail rail_electric rail_fast ship container cable_car subway aircraft wheelchair scooter drone" speed="13.89" length="61.93" width="3.50" shape="569.28,392.91,10.99 631.22,392.26,10.05"/>
        <lane id=":1082_6_3" index="3" disallow="pedestrian tram rail_urban rail rail_electric rail_fast ship container cable_car subway aircraft wheelchair scooter drone" speed="13.89" length="61.93" width="3.50" shape="569.29,396.41,10.99 631.28,395.76,10.05"/>
    </edge>
    <edge id=":1103_0" function="internal">
        <lane id=":1103_0_0" index="0" disallow="pedestrian tram rail_urban rail rail_electric rail_fast ship container cable_car subway aircraft wheelchair scooter drone" speed="8.33" length="14.93" width="3.50" shape="630.79,606.58,0.04 630.06,602.47,0.08 628.26,599.55,0.12 625.40,597.80,0.15 621.47,597.24,0.20">
            <param key="signalID" value="1639"/>
        </lane>
    </edge>
    <edge id=":1103_1" function="internal">
        <lane id=":1103_1_0" index="0" disallow="pedestrian tram rail_urban rail rail_electric rail_fast ship container cable_car subway aircraft wheelchair scooter drone" speed="9.63" length="21.54" width="3.50" shape="630.79,606.58,0.04 631.43,600.93,0.08 633.90,596.89,0.11 638.20,594.45,0.15 644.33,593.61,0.20">
            <param key="signalID" value="1639"/>
        </lane>
    </edge>
    <edge id=":1103_2" function="internal">
        <lane id=":1103_2_0" index="0" disallow="pedestrian tram rail_urban rail rail_electric rail_fast ship container cable_car subway aircraft wheelchair scooter drone" speed="8.32" length="15.75" width="3.50" shape="644.35,597.11,0.20 639.80,597.71,0.15 636.61,599.47,0.11 634.77,602.37,0.08 634.29,606.43,0.04">
            <param key="signalID" value="1637"/>
        </lane>
    </edge>
    <edge id=":1103_3" function="internal">
        <lane id=":1103_3_0" index="0" disallow="pedestrian tram rail_urban rail rail_electric rail_fast ship container cable_car subway aircraft wheelchair scooter drone" speed="13.89" length="22.88" width="3.50" shape="644.35,597.11,0.20 621.47,597.24,0.20">
            <param key="signalID" value="1637"/>
        </lane>
    </edge>
    <edge id=":1103_4" function="internal">
        <lane id=":1103_4_0" index="0" disallow="pedestrian tram rail_urban rail rail_electric rail_fast ship container cable_car subway aircraft wheelchair scooter drone" speed="13.89" length="22.88" width="3.50" shape="621.45,593.74,0.20 644.33,593.61,0.20">
            <param key="signalID" value="1639 1638 1638"/>
        </lane>
    </edge>
    <edge id=":1103_5" function="internal">
        <lane id=":1103_5_0" index="0" disallow="pedestrian tram rail_urban rail rail_electric rail_fast ship container cable_car subway aircraft wheelchair scooter drone" speed="9.65" length="5.47" width="3.50" shape="621.45,593.74,0.20 626.86,594.51,0.15">
            <param key="signalID" value="1638 1637"/>
        </lane>
    </edge>
    <edge id=":1103_6" function="internal">
        <lane id=":1103_6_0" index="0" disallow="pedestrian tram rail_urban rail rail_electric rail_fast ship container cable_car subway aircraft wheelchair scooter drone" speed="9.65" length="14.95" width="3.50" shape="626.86,594.51,0.15 630.81,596.88,0.12 633.28,600.85,0.08 634.29,606.43,0.04">
            <param key="signalID" value="1638 1637"/>
        </lane>
    </edge>
    <edge id=":1159_0" function="internal">
        <lane id=":1159_0_0" index="0" disallow="pedestrian tram rail_urban rail rail_electric rail_fast ship container cable_car subway aircraft wheelchair scooter drone" speed="13.89" length="80.61" width="3.50" shape="505.42,724.10 495.84,707.00 483.32,686.10 471.41,667.02 463.67,655.40"/>
        <lane id=":1159_0_1" index="1" disallow="pedestrian tram rail_urban rail rail_electric rail_fast ship container cable_car subway aircraft wheelchair scooter drone" speed="13.89" length="80.61" width="3.50" shape="505.42,724.10 496.28,706.68 484.73,685.06 473.78,665.26 466.47,653.31"/>
    </edge>
    <edge id=":1159_2" function="internal">
        <lane id=":1159_2_0" index="0" disallow="pedestrian tram rail_urban rail rail_electric rail_fast ship container cable_car subway aircraft wheelchair scooter drone" speed="13.89" length="80.52" width="3.50" shape="505.42,724.10 498.54,707.27 492.39,686.07 487.92,664.44 486.11,646.35"/>
        <lane id=":1159_2_1" index="1" disallow="pedestrian tram rail_urban rail rail_electric rail_fast ship container cable_car subway aircraft wheelchair scooter drone" speed="13.89" length="78.90" width="3.50" shape="508.52,722.49 501.71,705.91 495.69,685.24 491.36,664.15 489.61,646.31"/>
        <lane id=":1159_2_2" index="2" disallow="pedestrian tram rail_urban rail rail_electric rail_fast ship container cable_car subway aircraft wheelchair scooter drone" speed="13.89" length="77.29" width="3.50" shape="511.63,720.87 504.88,704.54 499.00,684.41 494.80,663.87 493.11,646.27"/>
        <lane id=":1159_2_3" index="3" disallow="pedestrian tram rail_urban rail rail_electric rail_fast ship container cable_car subway aircraft wheelchair scooter drone" speed="13.89" length="75.67" width="3.50" shape="514.74,719.26 508.05,703.17 502.30,683.59 498.24,663.58 496.61,646.23"/>
    </edge>
    <edge id=":1159_6" function="internal">
        <lane id=":1159_6_0" index="0" disallow="pedestrian tram rail_urban rail rail_electric rail_fast ship container cable_car subway aircraft wheelchair scooter drone" speed="13.89" length="68.41" width="3.50" shape="517.61,646.00 518.88,661.87 522.13,678.63 527.06,694.97 533.38,709.59"/>
        <lane id=":1159_6_1" index="1" disallow="pedestrian tram rail_urban rail rail_electric rail_fast ship container cable_car subway aircraft wheelchair scooter drone" speed="13.89" length="68.41" width="3.50" shape="514.11,646.04 515.44,662.16 518.82,679.46 523.89,696.34 530.27,711.20"/>
        <lane id=":1159_6_2" index="2" disallow="pedestrian tram rail_urban rail rail_electric rail_fast ship container cable_car subway aircraft wheelchair scooter drone" speed="13.89" length="68.41" width="3.50" shape="510.61,646.08 512.00,662.44 515.52,680.29 520.72,697.71 527.16,712.81"/>
        <lane id=":1159_6_3" index="3" disallow="pedestrian tram rail_urban rail rail_electric rail_fast ship container cable_car subway aircraft wheelchair scooter drone" speed="13.89" length="68.41" width="3.50" shape="507.11,646.12 508.56,662.73 512.21,681.11 517.55,699.07 524.06,714.42"/>
    </edge>
    <edge id=":1176_0" function="internal">
        <lane id=":1176_0_0" index="0" disallow="pedestrian tram rail_urban rail rail_electric rail_fast ship container cable_car subway aircraft wheelchair scooter drone" speed="13.89" length="46.68" width="3.50" shape="435.41,417.90,9.84 422.82,419.06,9.69 411.76,422.51,9.55 402.23,428.24,9.42 394.24,436.26,9.29"/>
    </edge>
    <edge id=":1176_1" function="internal">
        <lane id=":1176_1_0" index="0" disallow="pedestrian tram rail_urban rail rail_electric rail_fast ship container cable_car subway aircraft wheelchair scooter drone" speed="13.89" length="53.21" width="3.50" shape="435.41,417.90,9.84 382.21,417.97,8.75"/>
        <lane id=":1176_1_1" index="1" disallow="pedestrian tram rail_urban rail rail_electric rail_fast ship container cable_car subway aircraft wheelchair scooter drone" speed="13.89" length="53.21" width="3.50" shape="435.41,414.40,9.84 382.21,414.47,8.75"/>
        <lane id=":1176_1_2" index="2" disallow="pedestrian tram rail_urban rail rail_electric rail_fast ship container cable_car subway aircraft wheelchair scooter drone" speed="13.89" length="53.21" width="3.50" shape="435.40,410.90,9.84 382.20,410.97,8.75"/>
        <lane id=":1176_1_3" index="3" disallow="pedestrian tram rail_urban rail rail_electric rail_fast ship container cable_car subway aircraft wheelchair scooter drone" speed="13.89" length="53.21" width="3.50" shape="435.40,407.40,9.84 382.20,407.47,8.75"/>
    </edge>
    <edge id=":1176_5" function="internal">
        <lane id=":1176_5_0" index="0" disallow="pedestrian tram rail_urban rail rail_electric rail_fast ship container cable_car subway aircraft wheelchair scooter drone" speed="13.89" length="50.11" width="3.50" shape="390.52,367.95,8.70 399.10,376.04,8.97 409.43,381.81,9.24 421.53,385.26,9.52 435.37,386.40,9.84"/>
    </edge>
    <edge id=":1176_6" function="internal">
        <lane id=":1176_6_0" index="0" disallow="pedestrian tram rail_urban rail rail_electric rail_fast ship container cable_car subway aircraft wheelchair scooter drone" speed="13.89" length="53.21" width="3.50" shape="382.17,386.47,8.75 435.37,386.40,9.84"/>
        <lane id=":1176_6_1" index="1" disallow="pedestrian tram rail_urban rail rail_electric rail_fast ship container cable_car subway aircraft wheelchair scooter drone" speed="13.89" length="53.21" width="3.50" shape="382.18,389.97,8.75 435.38,389.90,9.84"/>
        <lane id=":1176_6_2" index="2" disallow="pedestrian tram rail_urban rail rail_electric rail_fast ship container cable_car subway aircraft wheelchair scooter drone" speed="13.89" length="53.21" width="3.50" shape="382.18,393.47,8.75 435.38,393.40,9.84"/>
        <lane id=":1176_6_3" index="3" disallow="pedestrian tram rail_urban rail rail_electric rail_fast ship container cable_car subway aircraft wheelchair scooter drone" speed="13.89" length="53.21" width="3.50" shape="382.19,396.97,8.75 435.39,396.90,9.84"/>
    </edge>
    <edge id=":1197_0" function="internal">
        <lane id=":1197_0_0" index="0" disallow="pedestrian tram rail_urban rail rail_electric rail_fast ship container cable_car subway aircraft wheelchair scooter drone" speed="8.43" length="15.77" width="3.50" shape="561.67,606.45,0.03 560.98,602.57,0.07 558.97,599.81,0.11 555.63,598.17,0.15 550.97,597.64,0.20">
            <param key="signalID" value="1640 1641"/>
        </lane>
    </edge>
    <edge id=":1197_1" function="internal">
        <lane id=":1197_1_0" index="0" disallow="pedestrian tram rail_urban rail rail_electric rail_fast ship container cable_car subway aircraft wheelchair scooter drone" speed="10.07" length="22.98" width="3.50" shape="561.67,606.45,0.03 562.64,601.03,0.07 565.63,597.15,0.11 570.62,594.80,0.15 577.64,593.99,0.20">
            <param key="signalID" value="1641"/>
        </lane>
    </edge>
    <edge id=":1197_2" function="internal">
        <lane id=":1197_2_0" index="0" disallow="pedestrian tram rail_urban rail rail_electric rail_fast ship container cable_car subway aircraft wheelchair scooter drone" speed="8.82" length="17.36" width="3.50" shape="577.66,597.49,0.20 572.18,598.07,0.14 568.27,599.76,0.10 565.93,602.54,0.07 565.17,606.43,0.03">
            <param key="signalID" value="1640"/>
        </lane>
    </edge>
    <edge id=":1197_3" function="internal">
        <lane id=":1197_3_0" index="0" disallow="pedestrian tram rail_urban rail rail_electric rail_fast ship container cable_car subway aircraft wheelchair scooter drone" speed="13.89" length="26.69" width="3.50" shape="577.66,597.49,0.20 550.97,597.64,0.20">
            <param key="signalID" value="1640"/>
        </lane>
    </edge>
    <edge id=":1197_4" function="internal">
        <lane id=":1197_4_0" index="0" disallow="pedestrian tram rail_urban rail rail_electric rail_fast ship container cable_car subway aircraft wheelchair scooter drone" speed="13.89" length="26.69" width="3.50" shape="550.95,594.14,0.20 577.64,593.99,0.20">
            <param key="signalID" value="1641 1642 1642"/>
        </lane>
    </edge>
    <edge id=":1197_5" function="internal">
        <lane id=":1197_5_0" index="0" disallow="pedestrian tram rail_urban rail rail_electric rail_fast ship container cable_car subway aircraft wheelchair scooter drone" speed="9.74" length="6.24" width="3.50" shape="550.95,594.14,0.20 557.14,594.88,0.15">
            <param key="signalID" value="1642"/>
        </lane>
    </edge>
    <edge id=":1197_6" function="internal">
        <lane id=":1197_6_0" index="0" disallow="pedestrian tram rail_urban rail rail_electric rail_fast ship container cable_car subway aircraft wheelchair scooter drone" speed="9.74" length="15.17" width="3.50" shape="557.14,594.88,0.15 561.58,597.17,0.11 564.26,601.02,0.08 565.17,606.43,0.03">
            <param key="signalID" value="1642"/>
        </lane>
    </edge>
    <edge id=":1249_0" function="internal">
        <lane id=":1249_0_0" index="0" disallow="pedestrian tram rail_urban rail rail_electric rail_fast ship container cable_car subway aircraft wheelchair scooter drone" speed="7.41" length="11.85" width="3.50" shape="851.51,603.27,0.00 851.01,600.06,0.06 849.61,597.78,0.10 847.30,596.41,0.14 844.08,595.97,0.20">
            <param key="signalID" value="1644"/>
        </lane>
    </edge>
    <edge id=":1249_1" function="internal">
        <lane id=":1249_1_0" index="0" disallow="pedestrian tram rail_urban rail rail_electric rail_fast ship container cable_car subway aircraft wheelchair scooter drone" speed="13.89" length="18.14" width="3.50" shape="851.51,603.27,0.00 851.27,585.13,0.00">
            <param key="signalID" value="1644"/>
        </lane>
    </edge>
    <edge id=":1249_2" function="internal">
        <lane id=":1249_2_0" index="0" disallow="pedestrian tram rail_urban rail rail_electric rail_fast ship container cable_car subway aircraft wheelchair scooter drone" speed="8.81" length="5.00" width="3.50" shape="851.51,603.27,0.00 852.13,598.52,0.06 852.24,598.33,0.06">
            <param key="signalID" value="1646 1643"/>
        </lane>
    </edge>
    <edge id=":1249_12" function="internal">
        <lane id=":1249_12_0" index="0" disallow="pedestrian tram rail_urban rail rail_electric rail_fast ship container cable_car subway aircraft wheelchair scooter drone" speed="8.81" length="12.44" width="3.50" shape="852.24,598.33,0.06 854.11,595.12,0.10 857.47,593.07,0.14 862.20,592.37,0.20">
            <param key="signalID" value="1646 1643"/>
        </lane>
    </edge>
    <edge id=":1249_3" function="internal">
        <lane id=":1249_3_0" index="0" disallow="pedestrian tram rail_urban rail rail_electric rail_fast ship container cable_car subway aircraft wheelchair scooter drone" speed="7.34" length="11.77" width="3.50" shape="862.22,595.87,0.20 859.03,596.34,0.14 856.77,597.73,0.10 855.43,600.02,0.06 855.01,603.22,0.00">
            <param key="signalID" value="1644"/>
        </lane>
    </edge>
    <edge id=":1249_4" function="internal">
        <lane id=":1249_4_0" index="0" disallow="pedestrian tram rail_urban rail rail_electric rail_fast ship container cable_car subway aircraft wheelchair scooter drone" speed="13.89" length="18.14" width="3.50" shape="862.22,595.87,0.20 844.08,595.97,0.20">
            <param key="signalID" value="1643"/>
        </lane>
    </edge>
    <edge id=":1249_5" function="internal">
        <lane id=":1249_5_0" index="0" disallow="pedestrian tram rail_urban rail rail_electric rail_fast ship container cable_car subway aircraft wheelchair scooter drone" speed="8.87" length="5.01" width="3.50" shape="862.22,595.87,0.20 857.48,595.22,0.14 857.29,595.11,0.14">
            <param key="signalID" value="1643"/>
        </lane>
    </edge>
    <edge id=":1249_13" function="internal">
        <lane id=":1249_13_0" index="0" disallow="pedestrian tram rail_urban rail rail_electric rail_fast ship container cable_car subway aircraft wheelchair scooter drone" speed="8.87" length="12.46" width="3.50" shape="857.29,595.11,0.14 854.08,593.21,0.10 852.01,589.85,0.06 851.27,585.13,0.00">
            <param key="signalID" value="1643"/>
        </lane>
    </edge>
    <edge id=":1249_6" function="internal">
        <lane id=":1249_6_0" index="0" disallow="pedestrian tram rail_urban rail rail_electric rail_fast ship container cable_car subway aircraft wheelchair scooter drone" speed="7.41" length="11.85" width="3.50" shape="854.77,585.08,0.00 855.27,588.29,0.06 856.68,590.57,0.10 858.99,591.93,0.14 862.20,592.37,0.20">
            <param key="signalID" value="1646"/>
        </lane>
    </edge>
    <edge id=":1249_7" function="internal">
        <lane id=":1249_7_0" index="0" disallow="pedestrian tram rail_urban rail rail_electric rail_fast ship container cable_car subway aircraft wheelchair scooter drone" speed="13.89" length="18.14" width="3.50" shape="854.77,585.08,0.00 855.01,603.22,0.00">
            <param key="signalID" value="1643 1646"/>
        </lane>
    </edge>
    <edge id=":1249_8" function="internal">
        <lane id=":1249_8_0" index="0" disallow="pedestrian tram rail_urban rail rail_electric rail_fast ship container cable_car subway aircraft wheelchair scooter drone" speed="8.81" length="5.00" width="3.50" shape="854.77,585.08,0.00 854.15,589.82,0.06 854.04,590.01,0.06">
            <param key="signalID" value="1646"/>
        </lane>
    </edge>
    <edge id=":1249_14" function="internal">
        <lane id=":1249_14_0" index="0" disallow="pedestrian tram rail_urban rail rail_electric rail_fast ship container cable_car subway aircraft wheelchair scooter drone" speed="8.81" length="12.43" width="3.50" shape="854.04,590.01,0.06 852.17,593.22,0.10 848.81,595.27,0.14 844.08,595.97,0.20">
            <param key="signalID" value="1646"/>
        </lane>
    </edge>
    <edge id=":1249_9" function="internal">
        <lane id=":1249_9_0" index="0" disallow="pedestrian tram rail_urban rail rail_electric rail_fast ship container cable_car subway aircraft wheelchair scooter drone" speed="7.34" length="11.75" width="3.50" shape="844.06,592.47,0.20 847.25,592.00,0.14 849.52,590.62,0.10 850.85,588.33,0.06 851.27,585.13,0.00">
            <param key="signalID" value="1645 1644"/>
        </lane>
    </edge>
    <edge id=":1249_10" function="internal">
        <lane id=":1249_10_0" index="0" disallow="pedestrian tram rail_urban rail rail_electric rail_fast ship container cable_car subway aircraft wheelchair scooter drone" speed="13.89" length="18.14" width="3.50" shape="844.06,592.47,0.20 862.20,592.37,0.20">
            <param key="signalID" value="1645 1645"/>
        </lane>
    </edge>
    <edge id=":1249_11" function="internal">
        <lane id=":1249_11_0" index="0" disallow="pedestrian tram rail_urban rail rail_electric rail_fast ship container cable_car subway aircraft wheelchair scooter drone" speed="8.87" length="5.01" width="3.50" shape="844.06,592.47,0.20 848.80,593.12,0.14 848.99,593.24,0.14">
            <param key="signalID" value="1645"/>
        </lane>
    </edge>
    <edge id=":1249_15" function="internal">
        <lane id=":1249_15_0" index="0" disallow="pedestrian tram rail_urban rail rail_electric rail_fast ship container cable_car subway aircraft wheelchair scooter drone" speed="8.87" length="12.46" width="3.50" shape="848.99,593.24,0.14 852.20,595.13,0.10 854.27,598.50,0.06 855.01,603.22,0.00">
            <param key="signalID" value="1645"/>
        </lane>
    </edge>
    <edge id=":134_0" function="internal">
        <lane id=":134_0_0" index="0" disallow="pedestrian tram rail_urban rail rail_electric rail_fast ship container cable_car subway aircraft wheelchair scooter drone" speed="13.89" length="67.60" width="3.50" shape="480.01,149.17 474.62,134.23 467.44,118.87 459.05,104.13 450.00,91.07"/>
        <lane id=":134_0_1" index="1" disallow="pedestrian tram rail_urban rail rail_electric rail_fast ship container cable_car subway aircraft wheelchair scooter drone" speed="13.89" length="67.60" width="3.50" shape="483.36,148.16 477.88,133.05 470.50,117.29 461.90,102.16 452.77,88.93"/>
        <lane id=":134_0_2" index="2" disallow="pedestrian tram rail_urban rail rail_electric rail_fast ship container cable_car subway aircraft wheelchair scooter drone" speed="13.89" length="67.60" width="3.50" shape="486.72,147.15 481.14,131.86 473.56,115.72 464.76,100.19 455.53,86.78"/>
        <lane id=":134_0_3" index="3" disallow="pedestrian tram rail_urban rail rail_electric rail_fast ship container cable_car subway aircraft wheelchair scooter drone" speed="13.89" length="67.60" width="3.50" shape="490.07,146.15 484.40,130.68 476.62,114.14 467.62,98.23 458.30,84.64"/>
    </edge>
    <edge id=":134_4" function="internal">
        <lane id=":134_4_0" index="0" disallow="pedestrian tram rail_urban rail rail_electric rail_fast ship container cable_car subway aircraft wheelchair scooter drone" speed="13.89" length="78.14" width="3.50" shape="474.90,71.78 487.67,86.11 504.34,102.75 520.04,117.77 529.88,127.20"/>