<?xml version="1.0" encoding="UTF-8"?>

<!-- generated on 2025-01-22 23:09:32 by Eclipse SUMO netconvert Version 1.18.0
<configuration xmlns:xsi="http://www.w3.org/2001/XMLSchema-instance" xsi:noNamespaceSchemaLocation="http://sumo.dlr.de/xsd/netconvertConfiguration.xsd">

    <input>
        <opendrive-files value="Town07.xodr"/>
    </input>

    <output>
        <output-file value="Town07.net.xml"/>
        <output.original-names value="true"/>
    </output>

    <processing>
        <geometry.remove value="true"/>
        <geometry.min-radius.fix value="true"/>
    </processing>

    <tls_building>
        <tls.discard-simple value="true"/>
        <tls.join value="true"/>
        <tls.guess-signals value="true"/>
    </tls_building>

    <junctions>
        <no-turnarounds.except-deadend value="true"/>
    </junctions>

    <formats>
        <opendrive.import-all-lanes value="true"/>
        <opendrive.curve-resolution value="1"/>
    </formats>

</configuration>
-->

<net version="1.16" junctionCornerDetail="5" rectangularLaneCut="true" limitTurnSpeed="5.50" xmlns:xsi="http://www.w3.org/2001/XMLSchema-instance" xsi:noNamespaceSchemaLocation="http://sumo.dlr.de/xsd/net_file.xsd">

    <location netOffset="203.03,122.66" convBoundary="0.00,0.00,287.15,370.05" origBoundary="0.000000,0.000000,0.000000,0.000000" projParameter="+proj=tmerc +lat_0=0 +lon_0=0 +k=1 +x_0=0 +y_0=0 +datum=WGS84 +units=m  +vunits=m +no_defs "/>


    <edge id=":123_0" function="internal">
        <lane id=":123_0_0" index="0" disallow="pedestrian tram rail_urban rail rail_electric rail_fast ship" speed="6.46" length="8.91" width="3.10" shape="50.24,79.34,0.00 49.86,76.94,0.00 48.80,75.24,0.00 47.06,74.22,0.00 44.63,73.90">
            <param key="origId" value="145_-1"/>
        </lane>
    </edge>
    <edge id=":123_1" function="internal">
        <lane id=":123_1_0" index="0" disallow="pedestrian tram rail_urban rail rail_electric rail_fast ship" speed="7.91" length="13.90" width="3.10" shape="50.24,79.34,0.00 50.73,75.58,0.00 52.33,72.88,0.00 55.02,71.25,0.00 58.80,70.68">
            <param key="origId" value="135_-1"/>
        </lane>
    </edge>
    <edge id=":123_2" function="internal">
        <lane id=":123_2_0" index="0" disallow="all" speed="1.39" length="14.20" width="0.50" shape="58.84,75.58 44.64,75.70">
            <param key="origId" value="128_-2"/>
        </lane>
    </edge>
    <edge id=":123_3" function="internal">
        <lane id=":123_3_0" index="0" disallow="pedestrian tram rail_urban rail rail_electric rail_fast ship" speed="6.44" length="2.94" width="3.10" shape="58.83,73.78 56.40,74.14,0.00 55.98,74.39,0.00">
            <param key="origId" value="139_-1"/>
        </lane>
    </edge>
    <edge id=":123_4" function="internal">
        <lane id=":123_4_0" index="0" disallow="pedestrian tram rail_urban rail rail_electric rail_fast ship" speed="13.89" length="14.20" width="3.10" shape="58.83,73.78 44.63,73.90">
            <param key="origId" value="128_-1"/>
        </lane>
    </edge>
    <edge id=":123_8" function="internal">
        <lane id=":123_8_0" index="0" disallow="pedestrian tram rail_urban rail rail_electric rail_fast ship" speed="6.44" length="5.95" width="3.10" shape="55.98,74.39,0.00 54.68,75.18,0.00 53.66,76.91,0.00 53.34,79.31,0.00">
            <param key="origId" value="139_-1"/>
        </lane>
    </edge>
    <edge id=":123_5" function="internal">
        <lane id=":123_5_0" index="0" disallow="all" speed="1.39" length="14.20" width="0.50" shape="44.58,69.00 58.78,68.88">
            <param key="origId" value="127_2"/>
        </lane>
        <lane id=":123_5_1" index="1" disallow="pedestrian tram rail_urban rail rail_electric rail_fast ship" speed="13.89" length="14.20" width="3.10" shape="44.60,70.80 58.80,70.68">
            <param key="origId" value="127_1"/>
        </lane>
    </edge>
    <edge id=":123_7" function="internal">
        <lane id=":123_7_0" index="0" disallow="pedestrian tram rail_urban rail rail_electric rail_fast ship" speed="7.92" length="3.93" width="3.10" shape="44.60,70.80 48.38,71.30,0.00 48.48,71.36,0.00">
            <param key="origId" value="141_1"/>
        </lane>
    </edge>
    <edge id=":123_9" function="internal">
        <lane id=":123_9_0" index="0" disallow="pedestrian tram rail_urban rail rail_electric rail_fast ship" speed="7.92" length="9.97" width="3.10" shape="48.48,71.36,0.00 51.10,72.89,0.00 52.75,75.56,0.00 53.34,79.31,0.00">
            <param key="origId" value="141_1"/>
        </lane>
    </edge>
    <edge id=":146_0" function="internal">
        <lane id=":146_0_0" index="0" disallow="pedestrian tram rail_urban rail rail_electric rail_fast ship" speed="7.35" length="11.34" width="3.20" shape="10.83,74.19 7.66,74.64 5.35,75.90 3.91,77.98 3.31,80.89">
            <param key="origId" value="151_-1"/>
        </lane>
    </edge>
    <edge id=":146_1" function="internal">
        <lane id=":146_1_0" index="0" disallow="pedestrian tram rail_urban rail rail_electric rail_fast ship" speed="8.58" length="16.50" width="3.20" shape="10.83,74.19 6.32,73.60 3.09,71.72 1.13,68.56 0.44,64.11">
            <param key="origId" value="153_-1"/>
        </lane>
    </edge>
    <edge id=":146_2" function="internal">
        <lane id=":146_2_0" index="0" disallow="all" speed="1.39" length="16.92" width="0.50" shape="5.49,64.07 5.16,80.98">
            <param key="origId" value="167_2"/>
        </lane>
    </edge>
    <edge id=":146_3" function="internal">
        <lane id=":146_3_0" index="0" disallow="pedestrian tram rail_urban rail rail_electric rail_fast ship" speed="7.24" length="3.33" width="3.10" shape="3.64,64.08 4.12,67.17 4.22,67.35">
            <param key="origId" value="157_1"/>
        </lane>
    </edge>
    <edge id=":146_4" function="internal">
        <lane id=":146_4_0" index="0" disallow="pedestrian tram rail_urban rail rail_electric rail_fast ship" speed="13.89" length="16.81" width="3.20" shape="3.64,64.08 3.31,80.89">
            <param key="origId" value="167_1"/>
        </lane>
    </edge>
    <edge id=":146_8" function="internal">
        <lane id=":146_8_0" index="0" disallow="pedestrian tram rail_urban rail rail_electric rail_fast ship" speed="7.24" length="8.09" width="3.10" shape="4.22,67.35 5.47,69.37 7.70,70.68 10.80,71.09">
            <param key="origId" value="157_1"/>
        </lane>
    </edge>
    <edge id=":146_5" function="internal">
        <lane id=":146_5_0" index="0" disallow="all" speed="1.39" length="16.57" width="0.50" shape="-1.73,80.65 -1.41,64.13">
            <param key="origId" value="168_-2"/>
        </lane>
        <lane id=":146_5_1" index="1" disallow="pedestrian tram rail_urban rail rail_electric rail_fast ship" speed="13.89" length="16.57" width="3.20" shape="0.12,80.74 0.44,64.11">
            <param key="origId" value="168_-1"/>
        </lane>
    </edge>
    <edge id=":146_7" function="internal">
        <lane id=":146_7_0" index="0" disallow="pedestrian tram rail_urban rail rail_electric rail_fast ship" speed="8.70" length="4.00" width="3.10" shape="0.12,80.74 0.91,76.81">
            <param key="origId" value="147_-1"/>
        </lane>
    </edge>
    <edge id=":146_9" function="internal">
        <lane id=":146_9_0" index="0" disallow="pedestrian tram rail_urban rail rail_electric rail_fast ship" speed="8.70" length="12.20" width="3.10" shape="0.91,76.81 0.96,76.55 3.02,73.55 6.30,71.73 10.80,71.09">
            <param key="origId" value="147_-1"/>
        </lane>
    </edge>
    <edge id=":169_0" function="internal">
        <lane id=":169_0_0" index="0" disallow="all" speed="1.39" length="16.80" width="0.50" shape="49.47,166.03,0.23 49.27,149.23,0.27">
            <param key="origId" value="189_-2"/>
        </lane>
    </edge>
    <edge id=":169_1" function="internal">
        <lane id=":169_1_0" index="0" disallow="pedestrian tram rail_urban rail rail_electric rail_fast ship" speed="7.15" length="11.13" width="3.10" shape="51.27,166.01,0.23 50.80,163.04,0.23 49.46,160.93,0.23 47.26,159.68,0.23 44.20,159.28,0.23">
            <param key="origId" value="210_-1"/>
        </lane>
    </edge>
    <edge id=":169_2" function="internal">
        <lane id=":169_2_0" index="0" disallow="pedestrian tram rail_urban rail rail_electric rail_fast ship" speed="13.89" length="16.80" width="3.10" shape="51.27,166.01,0.23 51.07,149.21,0.27">
            <param key="origId" value="189_-1"/>
        </lane>
    </edge>
    <edge id=":169_3" function="internal">
        <lane id=":169_3_0" index="0" disallow="pedestrian tram rail_urban rail rail_electric rail_fast ship" speed="8.53" length="16.34" width="3.10" shape="51.27,166.01,0.23 51.87,161.68,0.20 53.79,158.57,0.17 57.02,156.70,0.14 61.56,156.04,0.11">
            <param key="origId" value="199_-1"/>
        </lane>
    </edge>
    <edge id=":169_4" function="internal">
        <lane id=":169_4_0" index="0" disallow="all" speed="1.39" length="17.39" width="0.50" shape="61.60,160.94,0.11 44.21,161.08,0.23">
            <param key="origId" value="250_2"/>
        </lane>
    </edge>
    <edge id=":169_5" function="internal">
        <lane id=":169_5_0" index="0" disallow="pedestrian tram rail_urban rail rail_electric rail_fast ship" speed="7.19" length="3.57" width="3.10" shape="61.59,159.14,0.11 58.40,159.59,0.14 58.09,159.77,0.15">
            <param key="origId" value="203_1"/>
        </lane>
    </edge>
    <edge id=":169_6" function="internal">
        <lane id=":169_6_0" index="0" disallow="pedestrian tram rail_urban rail rail_electric rail_fast ship" speed="13.89" length="17.39" width="3.10" shape="61.59,159.14,0.11 44.20,159.28,0.23">
            <param key="origId" value="250_1"/>
        </lane>
    </edge>
    <edge id=":169_7" function="internal">
        <lane id=":169_7_0" index="0" disallow="pedestrian tram rail_urban rail rail_electric rail_fast ship" speed="8.59" length="4.59" width="3.10" shape="61.59,159.14,0.11 57.03,158.55,0.15">
            <param key="origId" value="218_1"/>
        </lane>
    </edge>
    <edge id=":169_16" function="internal">
        <lane id=":169_16_0" index="0" disallow="pedestrian tram rail_urban rail rail_electric rail_fast ship" speed="7.19" length="7.76" width="3.10" shape="58.09,159.77,0.15 56.14,160.88,0.17 54.79,163.00,0.20 54.37,165.97,0.23">
            <param key="origId" value="203_1"/>
        </lane>
    </edge>
    <edge id=":169_17" function="internal">
        <lane id=":169_17_0" index="0" disallow="pedestrian tram rail_urban rail rail_electric rail_fast ship" speed="8.59" length="11.89" width="3.10" shape="57.03,158.55,0.15 53.76,156.70,0.19 51.78,153.59,0.23 51.07,149.21,0.27">
            <param key="origId" value="218_1"/>
        </lane>
    </edge>
    <edge id=":169_8" function="internal">
        <lane id=":169_8_0" index="0" disallow="all" speed="1.39" length="16.80" width="0.50" shape="55.97,149.15,0.27 56.17,165.95,0.23">
            <param key="origId" value="188_2"/>
        </lane>
    </edge>
    <edge id=":169_9" function="internal">
        <lane id=":169_9_0" index="0" disallow="pedestrian tram rail_urban rail rail_electric rail_fast ship" speed="7.26" length="11.50" width="3.10" shape="54.17,149.17,0.27 54.67,152.20,0.23 56.06,154.35,0.19 58.36,155.64,0.15 61.56,156.04,0.11">
            <param key="origId" value="217_1"/>
        </lane>
    </edge>
    <edge id=":169_10" function="internal">
        <lane id=":169_10_0" index="0" disallow="pedestrian tram rail_urban rail rail_electric rail_fast ship" speed="13.89" length="16.80" width="3.10" shape="54.17,149.17,0.27 54.37,165.97,0.23">
            <param key="origId" value="188_1"/>
        </lane>
    </edge>
    <edge id=":169_11" function="internal">
        <lane id=":169_11_0" index="0" disallow="pedestrian tram rail_urban rail rail_electric rail_fast ship" speed="8.49" length="16.21" width="3.10" shape="54.17,149.17,0.27 53.59,153.56,0.26 51.74,156.71,0.25 48.61,158.62,0.24 44.20,159.28,0.23">
            <param key="origId" value="226_1"/>
        </lane>
    </edge>
    <edge id=":169_12" function="internal">
        <lane id=":169_12_0" index="0" disallow="all" speed="1.39" length="17.39" width="0.50" shape="44.16,154.38,0.23 61.55,154.24,0.11">
            <param key="origId" value="249_-2"/>
        </lane>
    </edge>
    <edge id=":169_13" function="internal">
        <lane id=":169_13_0" index="0" disallow="pedestrian tram rail_urban rail rail_electric rail_fast ship" speed="7.15" length="3.40" width="3.10" shape="44.17,156.18,0.23 47.22,155.72,0.24 47.49,155.56,0.24">
            <param key="origId" value="224_-1"/>
        </lane>
    </edge>
    <edge id=":169_14" function="internal">
        <lane id=":169_14_0" index="0" disallow="pedestrian tram rail_urban rail rail_electric rail_fast ship" speed="13.89" length="17.39" width="3.10" shape="44.17,156.18,0.23 61.56,156.04,0.11">
            <param key="origId" value="249_-1"/>
        </lane>
    </edge>
    <edge id=":169_15" function="internal">
        <lane id=":169_15_0" index="0" disallow="pedestrian tram rail_urban rail rail_electric rail_fast ship" speed="8.50" length="4.46" width="3.10" shape="44.17,156.18,0.23 48.59,156.76,0.23">
            <param key="origId" value="206_-1"/>
        </lane>
    </edge>
    <edge id=":169_18" function="internal">
        <lane id=":169_18_0" index="0" disallow="pedestrian tram rail_urban rail rail_electric rail_fast ship" speed="7.15" length="7.80" width="3.10" shape="47.49,155.56,0.24 49.39,154.41,0.25 50.67,152.24,0.26 51.07,149.21,0.27">
            <param key="origId" value="224_-1"/>
        </lane>
    </edge>
    <edge id=":169_19" function="internal">
        <lane id=":169_19_0" index="0" disallow="pedestrian tram rail_urban rail rail_electric rail_fast ship" speed="8.50" length="11.65" width="3.10" shape="48.59,156.76,0.23 51.76,158.59,0.23 53.69,161.66,0.23 54.37,165.97,0.23">
            <param key="origId" value="206_-1"/>
        </lane>
    </edge>
    <edge id=":17.16_0" function="internal">
        <lane id=":17.16_0_0" index="0" speed="13.89" length="5.27" width="2.00" shape="188.61,192.64 185.56,197.83"/>
        <lane id=":17.16_0_1" index="1" disallow="all" speed="1.39" length="5.27" width="0.63" shape="188.62,191.32 185.57,196.52"/>
        <lane id=":17.16_0_2" index="2" disallow="all" speed="1.39" length="5.27" width="0.50" shape="188.62,190.75 185.57,195.95"/>
        <lane id=":17.16_0_3" index="3" disallow="pedestrian tram rail_urban rail rail_electric rail_fast ship" speed="13.89" length="5.27" width="3.50" shape="188.64,188.75 185.64,188.73"/>
    </edge>
    <edge id=":17.16_4" function="internal">
        <lane id=":17.16_4_0" index="0" speed="13.89" length="3.00" width="2.00" shape="185.71,181.34 188.71,181.37"/>
        <lane id=":17.16_4_1" index="1" disallow="all" speed="1.39" length="3.00" width="0.63" shape="185.70,182.66 188.70,182.69"/>
        <lane id=":17.16_4_2" index="2" disallow="all" speed="1.39" length="3.00" width="0.50" shape="185.69,183.23 188.69,183.25"/>
        <lane id=":17.16_4_3" index="3" disallow="pedestrian tram rail_urban rail rail_electric rail_fast ship" speed="13.89" length="3.00" width="3.50" shape="185.67,185.23 188.67,185.25"/>
    </edge>
    <edge id=":18.17_0" function="internal">
        <lane id=":18.17_0_0" index="0" speed="13.89" length="5.27" width="2.00" shape="116.07,197.19 113.12,191.94"/>
        <lane id=":18.17_0_1" index="1" disallow="all" speed="1.39" length="5.27" width="0.63" shape="116.08,195.87 113.13,190.62"/>
        <lane id=":18.17_0_2" index="2" disallow="all" speed="1.39" length="5.27" width="0.50" shape="116.09,195.31 113.14,190.05"/>
        <lane id=":18.17_0_3" index="3" disallow="pedestrian tram rail_urban rail rail_electric rail_fast ship" speed="13.89" length="5.27" width="3.50" shape="116.15,188.08 113.15,188.05"/>
    </edge>
    <edge id=":18.17_4" function="internal">
        <lane id=":18.17_4_0" index="0" speed="13.89" length="2.99" width="2.00" shape="113.23,180.67 116.22,180.70"/>
        <lane id=":18.17_4_1" index="1" disallow="all" speed="1.39" length="2.99" width="0.63" shape="113.22,181.99 116.21,182.01"/>
        <lane id=":18.17_4_2" index="2" disallow="all" speed="1.39" length="2.99" width="0.50" shape="113.22,182.55 116.21,182.58"/>
        <lane id=":18.17_4_3" index="3" disallow="pedestrian tram rail_urban rail rail_electric rail_fast ship" speed="13.89" length="2.99" width="3.50" shape="113.20,184.55 116.19,184.58"/>
    </edge>
    <edge id=":26#1_0" function="internal">
        <lane id=":26#1_0_0" index="0" disallow="all" speed="1.39" length="3.25" width="0.50" shape="229.40,130.03,0.03 228.44,130.30,0.03 227.89,130.88,0.03 227.34,131.47,0.03 226.38,131.73,0.03"/>
        <lane id=":26#1_0_1" index="1" allow="emergency authority" speed="13.89" length="3.25" width="3.50" shape="229.40,128.89,0.03 228.50,129.02,0.03 227.90,129.31,0.03 227.31,129.60,0.03 226.40,129.73,0.03"/>
        <lane id=":26#1_0_2" index="2" disallow="pedestrian tram rail_urban rail rail_electric rail_fast ship" speed="13.89" length="3.25" width="3.50" shape="229.42,126.25,0.03 226.43,126.23,0.03"/>
    </edge>
    <edge id=":26#1_3" function="internal">
        <lane id=":26#1_3_0" index="0" speed="13.89" length="2.97" width="2.00" shape="226.50,118.84,0.03 229.47,118.87,0.03"/>
        <lane id=":26#1_3_1" index="1" disallow="all" speed="1.39" length="2.97" width="0.63" shape="226.49,120.16,0.03 229.46,120.19,0.03"/>
        <lane id=":26#1_3_2" index="2" disallow="all" speed="1.39" length="2.97" width="0.50" shape="226.49,120.73,0.03 229.46,120.75,0.03"/>
        <lane id=":26#1_3_3" index="3" disallow="pedestrian tram rail_urban rail rail_electric rail_fast ship" speed="13.89" length="2.97" width="3.50" shape="226.47,122.73,0.03 229.44,122.75,0.03"/>
    </edge>
    <edge id=":26.25_0" function="internal">
        <lane id=":26.25_0_0" index="0" disallow="all" speed="1.39" length="8.21" width="0.50" shape="238.10,128.24,0.03 235.66,128.54,0.03 234.05,129.16,0.03 232.43,129.77,0.03 229.99,130.04,0.03"/>
        <lane id=":26.25_0_1" index="1" disallow="pedestrian tram rail_urban rail rail_electric rail_fast ship" speed="13.89" length="8.21" width="3.50" shape="238.08,126.24,0.03 230.02,126.26,0.03"/>
    </edge>
    <edge id=":26.25_2" function="internal">
        <lane id=":26.25_2_0" index="0" speed="13.89" length="7.96" width="2.00" shape="230.06,118.87,0.03 238.00,118.85,0.03"/>
        <lane id=":26.25_2_1" index="1" disallow="all" speed="1.39" length="7.96" width="0.63" shape="230.06,120.19,0.03 238.01,120.17,0.03"/>
        <lane id=":26.25_2_2" index="2" disallow="all" speed="1.39" length="7.96" width="0.50" shape="230.05,120.76,0.03 238.02,120.74,0.03"/>
        <lane id=":26.25_2_3" index="3" disallow="pedestrian tram rail_urban rail rail_electric rail_fast ship" speed="13.89" length="7.96" width="3.50" shape="230.04,122.76,0.03 238.04,122.74,0.03"/>
    </edge>
    <edge id=":260_0" function="internal">
        <lane id=":260_0_0" index="0" disallow="pedestrian tram rail_urban rail rail_electric rail_fast ship" speed="7.98" length="14.52" width="3.50" shape="197.14,73.40 196.53,69.43,0.01 194.80,66.68,0.02 191.94,65.13,0.03 187.95,64.79,0.03">
            <param key="origId" value="286_-1"/>
        </lane>
    </edge>
    <edge id=":260_1" function="internal">
        <lane id=":260_1_0" index="0" disallow="pedestrian tram rail_urban rail rail_electric rail_fast ship" speed="9.62" length="20.12" width="3.50" shape="197.14,73.40 197.84,67.83,0.01 200.05,63.75,0.02 203.77,61.17,0.03 209.00,60.08,0.03">
            <param key="origId" value="265_-1"/>
        </lane>
    </edge>
    <edge id=":260_2" function="internal">
        <lane id=":260_2_0" index="0" disallow="pedestrian tram rail_urban rail rail_electric rail_fast ship" speed="8.30" length="14.67" width="3.50" shape="209.20,63.57,0.03 205.42,64.37,0.03 202.74,66.27,0.02 201.14,69.27,0.01 200.64,73.37">
            <param key="origId" value="261_1"/>
        </lane>
    </edge>
    <edge id=":260_3" function="internal">
        <lane id=":260_3_0" index="0" disallow="pedestrian tram rail_urban rail rail_electric rail_fast ship" speed="13.89" length="21.29" width="3.50" shape="209.20,63.57,0.03 187.95,64.79,0.03">
            <param key="origId" value="281_1"/>
        </lane>
    </edge>
    <edge id=":260_4" function="internal">
        <lane id=":260_4_0" index="0" disallow="all" speed="1.39" length="21.29" width="0.50" shape="187.63,59.30,0.03 208.88,58.08,0.03">
            <param key="origId" value="280_-2"/>
        </lane>
        <lane id=":260_4_1" index="1" disallow="pedestrian tram rail_urban rail rail_electric rail_fast ship" speed="13.89" length="21.29" width="3.50" shape="187.75,61.29,0.03 209.00,60.08,0.03">
            <param key="origId" value="280_-1"/>
        </lane>
    </edge>
    <edge id=":260_6" function="internal">
        <lane id=":260_6_0" index="0" disallow="pedestrian tram rail_urban rail rail_electric rail_fast ship" speed="9.35" length="20.37" width="3.50" shape="187.75,61.29,0.03 193.34,61.77,0.03 197.36,63.95,0.02 199.79,67.81,0.01 200.64,73.37">
            <param key="origId" value="282_-1"/>
        </lane>
    </edge>
    <edge id=":288_0" function="internal">
        <lane id=":288_0_0" index="0" disallow="all" speed="1.39" length="19.84" width="0.50" shape="196.96,291.10 196.79,271.26">
            <param key="origId" value="309_-2"/>
        </lane>
    </edge>
    <edge id=":288_1" function="internal">
        <lane id=":288_1_0" index="0" disallow="pedestrian tram rail_urban rail rail_electric rail_fast ship" speed="7.71" length="3.60" width="3.50" shape="198.96,291.08 198.38,287.91,0.03 198.15,287.61,0.04">
            <param key="origId" value="301_-1"/>
        </lane>
    </edge>
    <edge id=":288_2" function="internal">
        <lane id=":288_2_0" index="0" disallow="pedestrian tram rail_urban rail rail_electric rail_fast ship" speed="13.89" length="19.84" width="3.50" shape="198.96,291.08 198.79,271.24">
            <param key="origId" value="309_-1"/>
        </lane>
    </edge>
    <edge id=":288_8" function="internal">
        <lane id=":288_8_0" index="0" disallow="pedestrian tram rail_urban rail rail_electric rail_fast ship" speed="7.71" length="9.43" width="3.50" shape="198.15,287.61,0.04 196.69,285.66,0.06 193.91,284.32,0.10 190.02,283.91,0.14">
            <param key="origId" value="301_-1"/>
        </lane>
    </edge>
    <edge id=":288_3" function="internal">
        <lane id=":288_3_0" index="0" disallow="all" speed="1.39" length="19.84" width="0.50" shape="204.29,271.20 204.46,291.04">
            <param key="origId" value="310_2"/>
        </lane>
        <lane id=":288_3_1" index="1" disallow="pedestrian tram rail_urban rail rail_electric rail_fast ship" speed="13.89" length="19.84" width="3.50" shape="202.29,271.21 202.46,291.05">
            <param key="origId" value="310_1"/>
        </lane>
    </edge>
    <edge id=":288_5" function="internal">
        <lane id=":288_5_0" index="0" disallow="pedestrian tram rail_urban rail rail_electric rail_fast ship" speed="9.46" length="5.56" width="3.50" shape="202.29,271.21 201.56,276.72,0.04">
            <param key="origId" value="289_1"/>
        </lane>
    </edge>
    <edge id=":288_9" function="internal">
        <lane id=":288_9_0" index="0" disallow="pedestrian tram rail_urban rail rail_electric rail_fast ship" speed="9.46" length="14.57" width="3.50" shape="201.56,276.72,0.04 199.28,280.68,0.07 195.43,283.07,0.10 190.02,283.91,0.14">
            <param key="origId" value="289_1"/>
        </lane>
    </edge>
    <edge id=":288_6" function="internal">
        <lane id=":288_6_0" index="0" disallow="pedestrian tram rail_urban rail rail_electric rail_fast ship" speed="8.11" length="14.49" width="3.50" shape="189.99,280.41,0.14 193.87,279.80,0.10 196.63,278.07,0.07 198.27,275.22,0.04 198.79,271.24">
            <param key="origId" value="295_1"/>
        </lane>
    </edge>
    <edge id=":288_7" function="internal">
        <lane id=":288_7_0" index="0" disallow="pedestrian tram rail_urban rail rail_electric rail_fast ship" speed="9.12" length="18.67" width="3.50" shape="189.99,280.41,0.14 195.41,281.03,0.10 199.29,283.01,0.07 201.64,286.35,0.04 202.46,291.05">
            <param key="origId" value="297_1"/>
        </lane>
    </edge>
    <edge id=":314_0" function="internal">
        <lane id=":314_0_0" index="0" speed="13.89" length="19.86" width="2.00" shape="188.14,235.48,0.00 168.27,235.54,0.00">
            <param key="origId" value="328_-4"/>
        </lane>
        <lane id=":314_0_1" index="1" disallow="all" speed="1.39" length="19.86" width="0.63" shape="188.13,234.16,0.00 168.27,234.23,0.00">
            <param key="origId" value="328_-3"/>
        </lane>
        <lane id=":314_0_2" index="2" disallow="all" speed="1.39" length="19.86" width="0.50" shape="188.13,233.60,0.00 168.27,233.66,0.00">
            <param key="origId" value="328_-2"/>
        </lane>
        <lane id=":314_0_3" index="3" disallow="pedestrian tram rail_urban rail rail_electric rail_fast ship" speed="13.89" length="19.86" width="3.50" shape="188.12,231.60,0.00 168.26,231.66,0.00">
            <param key="origId" value="328_-1"/>
        </lane>
    </edge>
    <edge id=":314_4" function="internal">
        <lane id=":314_4_0" index="0" disallow="pedestrian tram rail_urban rail rail_electric rail_fast ship" speed="8.08" length="13.47" width="3.50" shape="179.23,219.99 180.06,223.54,0.00 181.81,226.08,0.00 184.49,227.60,0.00 188.11,228.10,0.00">
            <param key="origId" value="331_-1"/>
        </lane>
    </edge>
    <edge id=":314_5" function="internal">
        <lane id=":314_5_0" index="0" disallow="all" speed="1.39" length="19.86" width="0.50" shape="168.25,226.16,0.00 188.11,226.10,0.00">
            <param key="origId" value="329_2"/>
        </lane>
        <lane id=":314_5_1" index="1" disallow="pedestrian tram rail_urban rail rail_electric rail_fast ship" speed="13.89" length="19.86" width="3.50" shape="168.25,228.16,0.00 188.11,228.10,0.00">
            <param key="origId" value="329_1"/>
        </lane>
    </edge>
    <edge id=":335_0" function="internal">
        <lane id=":335_0_0" index="0" speed="13.89" length="11.79" width="2.00" shape="271.97,70.69,0.03 269.41,68.73,0.03 267.48,67.60,0.03 265.36,66.90,0.03 262.20,66.26,0.03">
            <param key="origId" value="347_4"/>
        </lane>
        <lane id=":335_0_1" index="1" disallow="all" speed="1.39" length="11.79" width="0.63" shape="272.79,69.66,0.03 270.08,67.58,0.03 268.04,66.38,0.03 265.79,65.65,0.03 262.44,64.97,0.03">
            <param key="origId" value="347_3"/>
        </lane>
        <lane id=":335_0_2" index="2" disallow="all" speed="1.39" length="11.79" width="0.50" shape="273.14,69.21,0.03 270.37,67.09,0.03 268.28,65.86,0.03 265.97,65.11,0.03 262.54,64.41,0.03">
            <param key="origId" value="347_2"/>
        </lane>
        <lane id=":335_0_3" index="3" disallow="pedestrian tram rail_urban rail rail_electric rail_fast ship" speed="13.89" length="11.79" width="3.50" shape="274.38,67.65,0.03 271.38,65.35,0.03 269.12,64.01,0.03 266.62,63.20,0.03 262.91,62.44,0.03">
            <param key="origId" value="347_1"/>
            <param key="signalID" value="998"/>
        </lane>
    </edge>
    <edge id=":335_4" function="internal">
        <lane id=":335_4_0" index="0" disallow="pedestrian tram rail_urban rail rail_electric rail_fast ship" speed="9.60" length="3.65" width="3.20" shape="274.38,67.65,0.03 272.20,65.19,0.02 272.07,64.85,0.02">
            <param key="origId" value="354_1"/>
            <param key="signalID" value="998"/>
        </lane>
    </edge>
    <edge id=":335_10" function="internal">
        <lane id=":335_10_0" index="0" disallow="pedestrian tram rail_urban rail rail_electric rail_fast ship" speed="9.60" length="11.12" width="3.20" shape="272.07,64.85,0.02 271.03,62.10,0.01 270.89,58.37,0.01 271.78,54.01">
            <param key="origId" value="354_1"/>
            <param key="signalID" value="998"/>
        </lane>
    </edge>
    <edge id=":335_5" function="internal">
        <lane id=":335_5_0" index="0" disallow="pedestrian tram rail_urban rail rail_electric rail_fast ship" speed="8.26" length="10.75" width="3.50" shape="274.85,54.93 274.18,58.16,0.01 274.24,60.91,0.02 275.03,63.15,0.02 276.56,64.90,0.03">
            <param key="origId" value="352_-1"/>
            <param key="signalID" value="1000 999"/>
        </lane>
    </edge>
    <edge id=":335_6" function="internal">
        <lane id=":335_6_0" index="0" disallow="pedestrian tram rail_urban rail rail_electric rail_fast ship" speed="8.73" length="15.74" width="3.50" shape="274.85,54.93 273.07,58.86,0.01 270.49,61.43,0.01 267.10,62.62,0.02 262.91,62.44,0.03">
            <param key="origId" value="337_-1"/>
            <param key="signalID" value="999"/>
        </lane>
    </edge>
    <edge id=":335_7" function="internal">
        <lane id=":335_7_0" index="0" disallow="all" speed="1.39" length="15.51" width="0.50" shape="263.92,57.04,0.03 268.41,57.94,0.03 271.43,58.93,0.03 274.17,60.55,0.03 277.80,63.34,0.03">
            <param key="origId" value="348_-2"/>
            <param key="signalID" value="998 999"/>
        </lane>
    </edge>
    <edge id=":335_8" function="internal">
        <lane id=":335_8_0" index="0" disallow="pedestrian tram rail_urban rail rail_electric rail_fast ship" speed="7.34" length="3.62" width="3.20" shape="263.56,59.00,0.03 266.46,59.14,0.02 267.14,58.91,0.02">
            <param key="origId" value="336_-1"/>
            <param key="signalID" value="998 1000"/>
        </lane>
    </edge>
    <edge id=":335_9" function="internal">