<?xml version="1.0" encoding="UTF-8"?>

<!-- generated on 2025-01-22 23:09:44 by Eclipse SUMO netconvert Version 1.18.0
<configuration xmlns:xsi="http://www.w3.org/2001/XMLSchema-instance" xsi:noNamespaceSchemaLocation="http://sumo.dlr.de/xsd/netconvertConfiguration.xsd">

    <input>
        <opendrive-files value="Town10HD.xodr"/>
    </input>

    <output>
        <output-file value="Town10.net.xml"/>
        <output.original-names value="true"/>
    </output>

    <processing>
        <geometry.remove value="true"/>
        <geometry.min-radius.fix value="true"/>
    </processing>

    <tls_building>
        <tls.discard-simple value="true"/>
        <tls.join value="true"/>
        <tls.guess-signals value="true"/>
    </tls_building>

    <junctions>
        <no-turnarounds.except-deadend value="true"/>
    </junctions>

    <formats>
        <opendrive.import-all-lanes value="true"/>
        <opendrive.curve-resolution value="1"/>
    </formats>

</configuration>
-->

<net version="1.16" junctionCornerDetail="5" rectangularLaneCut="true" limitTurnSpeed="5.50" xmlns:xsi="http://www.w3.org/2001/XMLSchema-instance" xsi:noNamespaceSchemaLocation="http://sumo.dlr.de/xsd/net_file.xsd">

    <location netOffset="109.34,135.96" convBoundary="0.00,0.00,214.08,199.44" origBoundary="0.000000,0.000000,0.000000,0.000000" projParameter="+proj=tmerc +lat_0=0 +lon_0=0 +k=1 +x_0=0 +y_0=0 +datum=WGS84 +units=m  +vunits=m +no_defs "/>


    <edge id=":134_0" function="internal">
        <lane id=":134_0_0" index="0" disallow="all" speed="1.39" length="33.27" width="2.50" shape="168.29,72.64 135.01,72.68">
            <param key="origId" value="151_-2"/>
        </lane>
    </edge>
    <edge id=":134_1" function="internal">
        <lane id=":134_1_0" index="0" disallow="pedestrian tram rail_urban rail rail_electric rail_fast ship" speed="10.36" length="5.95" width="3.50" shape="168.28,69.64 162.40,70.51">
            <param key="origId" value="160_-1"/>
        </lane>
    </edge>
    <edge id=":134_2" function="internal">
        <lane id=":134_2_0" index="0" disallow="pedestrian tram rail_urban rail rail_electric rail_fast ship" speed="13.89" length="33.27" width="3.50" shape="168.28,69.64 135.01,69.68">
            <param key="origId" value="151_-1"/>
        </lane>
    </edge>
    <edge id=":134_10" function="internal">
        <lane id=":134_10_0" index="0" disallow="pedestrian tram rail_urban rail rail_electric rail_fast ship" speed="10.36" length="18.20" width="3.50" shape="162.40,70.51 161.83,70.59 157.19,73.43 154.36,78.15 153.36,84.75">
            <param key="origId" value="160_-1"/>
        </lane>
    </edge>
    <edge id=":134_3" function="internal">
        <lane id=":134_3_0" index="0" speed="13.89" length="33.27" width="6.00" shape="135.00,58.30 168.27,58.25">
            <param key="origId" value="150_4"/>
        </lane>
        <lane id=":134_3_1" index="1" disallow="all" speed="1.39" length="33.27" width="0.63" shape="135.00,61.61 168.27,61.57">
            <param key="origId" value="150_3"/>
        </lane>
        <lane id=":134_3_2" index="2" disallow="all" speed="1.39" length="33.27" width="2.50" shape="135.00,63.18 168.27,63.14">
            <param key="origId" value="150_2"/>
        </lane>
        <lane id=":134_3_3" index="3" disallow="pedestrian tram rail_urban rail rail_electric rail_fast ship" speed="13.89" length="33.27" width="3.50" shape="135.01,66.18 168.28,66.14">
            <param key="origId" value="150_1"/>
        </lane>
    </edge>
    <edge id=":134_7" function="internal">
        <lane id=":134_7_0" index="0" disallow="pedestrian tram rail_urban rail rail_electric rail_fast ship" speed="11.36" length="6.06" width="3.50" shape="135.01,66.18 141.01,67.03">
            <param key="origId" value="172_1"/>
        </lane>
    </edge>
    <edge id=":134_11" function="internal">
        <lane id=":134_11_0" index="0" disallow="pedestrian tram rail_urban rail rail_electric rail_fast ship" speed="11.36" length="23.80" width="3.50" shape="141.01,67.03 143.13,67.33 148.89,70.81 152.30,76.62 153.36,84.75">
            <param key="origId" value="172_1"/>
        </lane>
    </edge>
    <edge id=":134_8" function="internal">
        <lane id=":134_8_0" index="0" disallow="pedestrian tram rail_urban rail rail_electric rail_fast ship" speed="10.26" length="24.16" width="3.50" shape="149.86,84.70 149.00,78.12 146.24,73.43 141.58,70.61 135.01,69.68">
            <param key="origId" value="179_1"/>
        </lane>
    </edge>
    <edge id=":134_9" function="internal">
        <lane id=":134_9_0" index="0" disallow="pedestrian tram rail_urban rail rail_electric rail_fast ship" speed="11.45" length="29.73" width="3.50" shape="149.86,84.70 151.10,76.59 154.58,70.79 160.31,67.31 168.28,66.14">
            <param key="origId" value="152_1"/>
        </lane>
    </edge>
    <edge id=":189_0" function="internal">
        <lane id=":189_0_0" index="0" disallow="all" speed="1.39" length="39.55" width="2.50" shape="82.11,125.86 42.56,125.97">
            <param key="origId" value="254_6"/>
        </lane>
    </edge>
    <edge id=":189_1" function="internal">
        <lane id=":189_1_0" index="0" disallow="pedestrian tram rail_urban rail rail_electric rail_fast ship" speed="10.27" length="5.90" width="3.50" shape="82.10,122.86 76.27,123.73">
            <param key="origId" value="395_1"/>
        </lane>
    </edge>
    <edge id=":189_2" function="internal">
        <lane id=":189_2_0" index="0" disallow="pedestrian tram rail_urban rail rail_electric rail_fast ship" speed="13.89" length="39.55" width="3.50" shape="82.10,122.86 42.55,122.97">
            <param key="origId" value="254_5"/>
            <param key="signalID" value="952"/>
        </lane>
        <lane id=":189_2_1" index="1" disallow="pedestrian tram rail_urban rail rail_electric rail_fast ship" speed="13.89" length="39.55" width="3.50" shape="82.09,119.36 42.54,119.47">
            <param key="origId" value="254_4"/>
            <param key="signalID" value="952"/>
        </lane>
    </edge>
    <edge id=":189_4" function="internal">
        <lane id=":189_4_0" index="0" disallow="pedestrian tram rail_urban rail rail_electric rail_fast ship" speed="12.92" length="15.62" width="3.50" shape="82.09,119.36 72.69,117.73 67.80,114.12">
            <param key="origId" value="338_1"/>
            <param key="signalID" value="949"/>
        </lane>
    </edge>
    <edge id=":189_5" function="internal">
        <lane id=":189_5_0" index="0" disallow="all" speed="1.39" length="39.55" width="0.50" shape="82.09,117.36 42.54,117.47">
            <param key="origId" value="254_3"/>
        </lane>
        <lane id=":189_5_1" index="1" disallow="all" speed="1.39" length="39.55" width="0.50" shape="82.08,113.36 42.52,113.47">
            <param key="origId" value="254_1"/>
        </lane>
    </edge>
    <edge id=":189_24" function="internal">
        <lane id=":189_24_0" index="0" disallow="pedestrian tram rail_urban rail rail_electric rail_fast ship" speed="10.27" length="17.96" width="3.50" shape="76.27,123.73 75.75,123.81 71.20,126.64 68.46,131.33 67.53,137.90">
            <param key="origId" value="395_1"/>
        </lane>
    </edge>
    <edge id=":189_25" function="internal">
        <lane id=":189_25_0" index="0" disallow="pedestrian tram rail_urban rail rail_electric rail_fast ship" speed="12.92" length="23.10" width="3.50" shape="67.80,114.12 65.98,112.78 61.97,104.51 60.66,92.93">
            <param key="origId" value="338_1"/>
            <param key="signalID" value="949"/>
        </lane>
    </edge>
    <edge id=":189_7" function="internal">
        <lane id=":189_7_0" index="0" disallow="all" speed="1.39" length="44.95" width="2.00" shape="70.41,92.96 70.28,137.91">
            <param key="origId" value="467_-3"/>
        </lane>
    </edge>
    <edge id=":189_8" function="internal">
        <lane id=":189_8_0" index="0" disallow="pedestrian tram rail_urban rail rail_electric rail_fast ship" speed="10.19" length="6.27" width="3.50" shape="67.66,92.95 68.50,99.17">
            <param key="origId" value="344_-1"/>
        </lane>
    </edge>
    <edge id=":189_9" function="internal">
        <lane id=":189_9_0" index="0" disallow="pedestrian tram rail_urban rail rail_electric rail_fast ship" speed="13.89" length="44.95" width="3.50" shape="67.66,92.95 67.53,137.90">
            <param key="origId" value="467_-2"/>
            <param key="signalID" value="950"/>
        </lane>
        <lane id=":189_9_1" index="1" disallow="pedestrian tram rail_urban rail rail_electric rail_fast ship" speed="13.89" length="44.95" width="3.50" shape="64.16,92.94 64.03,137.89">
            <param key="origId" value="467_-1"/>
            <param key="signalID" value="950"/>
        </lane>
    </edge>
    <edge id=":189_11" function="internal">
        <lane id=":189_11_0" index="0" disallow="pedestrian tram rail_urban rail rail_electric rail_fast ship" speed="12.99" length="7.41" width="3.50" shape="64.16,92.94 63.28,100.31">
            <param key="origId" value="256_-1"/>
            <param key="signalID" value="950"/>
        </lane>
    </edge>
    <edge id=":189_26" function="internal">
        <lane id=":189_26_0" index="0" disallow="pedestrian tram rail_urban rail rail_electric rail_fast ship" speed="10.19" length="17.39" width="3.50" shape="68.50,99.17 68.54,99.49 71.24,104.15 75.75,106.94 82.06,107.86">
            <param key="origId" value="344_-1"/>
        </lane>
    </edge>
    <edge id=":189_27" function="internal">
        <lane id=":189_27_0" index="0" disallow="pedestrian tram rail_urban rail rail_electric rail_fast ship" speed="12.99" length="31.44" width="3.50" shape="63.28,100.31 62.78,104.52 58.72,112.80 51.97,117.78 42.54,119.47">
            <param key="origId" value="256_-1"/>
            <param key="signalID" value="950"/>
        </lane>
    </edge>
    <edge id=":189_12" function="internal">
        <lane id=":189_12_0" index="0" disallow="all" speed="1.39" length="39.55" width="2.50" shape="42.50,104.97 82.05,104.86">
            <param key="origId" value="255_-3"/>
            <param key="signalID" value="951 950"/>
        </lane>
    </edge>
    <edge id=":189_13" function="internal">
        <lane id=":189_13_0" index="0" disallow="pedestrian tram rail_urban rail rail_electric rail_fast ship" speed="10.28" length="5.93" width="3.50" shape="42.51,107.97 48.37,107.09">
            <param key="origId" value="268_-1"/>
        </lane>
    </edge>
    <edge id=":189_14" function="internal">
        <lane id=":189_14_0" index="0" disallow="pedestrian tram rail_urban rail rail_electric rail_fast ship" speed="13.89" length="39.55" width="3.50" shape="42.51,107.97 82.06,107.86">
            <param key="origId" value="255_-2"/>
            <param key="signalID" value="951 950 949"/>
        </lane>
        <lane id=":189_14_1" index="1" disallow="pedestrian tram rail_urban rail rail_electric rail_fast ship" speed="13.89" length="39.55" width="3.50" shape="42.52,111.47 82.07,111.36">
            <param key="origId" value="255_-1"/>
            <param key="signalID" value="951 950 949"/>
        </lane>
    </edge>
    <edge id=":189_16" function="internal">
        <lane id=":189_16_0" index="0" disallow="pedestrian tram rail_urban rail rail_electric rail_fast ship" speed="13.37" length="5.76" width="3.50" shape="42.52,111.47 48.22,112.31">
            <param key="origId" value="315_-1"/>
            <param key="signalID" value="952 949 949"/>
        </lane>
        <lane id=":189_16_1" index="1" disallow="pedestrian tram rail_urban rail rail_electric rail_fast ship" speed="12.93" length="5.00" width="3.50" shape="42.52,111.47 47.44,112.31">
            <param key="origId" value="296_-1"/>
            <param key="signalID" value="952 949 949"/>
        </lane>
    </edge>
    <edge id=":189_28" function="internal">
        <lane id=":189_28_0" index="0" disallow="pedestrian tram rail_urban rail rail_electric rail_fast ship" speed="10.28" length="17.99" width="3.50" shape="48.37,107.09 48.90,107.01 53.48,104.18 56.23,99.49 57.16,92.92">
            <param key="origId" value="268_-1"/>
        </lane>
    </edge>
    <edge id=":189_29" function="internal">
        <lane id=":189_29_0" index="0" disallow="pedestrian tram rail_urban rail rail_electric rail_fast ship" speed="13.37" length="35.78" width="3.50" shape="48.22,112.31 53.49,113.09 61.32,118.04 66.00,126.31 67.53,137.90">
            <param key="origId" value="315_-1"/>
            <param key="signalID" value="952 949 949"/>
        </lane>
    </edge>
    <edge id=":189_30" function="internal">
        <lane id=":189_30_0" index="0" disallow="pedestrian tram rail_urban rail rail_electric rail_fast ship" speed="12.93" length="33.79" width="3.50" shape="47.44,112.31 51.96,113.09 58.69,118.04 62.72,126.31 64.03,137.89">
            <param key="origId" value="296_-1"/>
            <param key="signalID" value="952 949 949"/>
        </lane>
    </edge>
    <edge id=":189_18" function="internal">
        <lane id=":189_18_0" index="0" disallow="all" speed="1.39" length="44.95" width="2.00" shape="54.28,137.86 54.41,92.91">
            <param key="origId" value="466_3"/>
        </lane>
    </edge>
    <edge id=":189_19" function="internal">
        <lane id=":189_19_0" index="0" disallow="pedestrian tram rail_urban rail rail_electric rail_fast ship" speed="10.20" length="6.24" width="3.50" shape="57.03,137.87 56.19,131.69">
            <param key="origId" value="286_1"/>
        </lane>
    </edge>
    <edge id=":189_20" function="internal">
        <lane id=":189_20_0" index="0" disallow="pedestrian tram rail_urban rail rail_electric rail_fast ship" speed="13.89" length="44.95" width="3.50" shape="57.03,137.87 57.16,92.92">
            <param key="origId" value="466_2"/>
            <param key="signalID" value="951"/>
        </lane>
        <lane id=":189_20_1" index="1" disallow="pedestrian tram rail_urban rail rail_electric rail_fast ship" speed="13.89" length="44.95" width="3.50" shape="60.53,137.88 60.66,92.93">
            <param key="origId" value="466_1"/>
            <param key="signalID" value="951"/>
        </lane>
    </edge>
    <edge id=":189_22" function="internal">
        <lane id=":189_22_0" index="0" disallow="pedestrian tram rail_urban rail rail_electric rail_fast ship" speed="13.45" length="8.41" width="3.50" shape="60.53,137.88 61.41,129.52">
            <param key="origId" value="382_1"/>
            <param key="signalID" value="952"/>
        </lane>
        <lane id=":189_22_1" index="1" disallow="pedestrian tram rail_urban rail rail_electric rail_fast ship" speed="12.98" length="7.44" width="3.50" shape="60.53,137.88 61.41,130.49">
            <param key="origId" value="375_1"/>
            <param key="signalID" value="952"/>
        </lane>
    </edge>
    <edge id=":189_31" function="internal">
        <lane id=":189_31_0" index="0" disallow="pedestrian tram rail_urban rail rail_electric rail_fast ship" speed="10.20" length="17.49" width="3.50" shape="56.19,131.69 56.14,131.33 53.43,126.67 48.90,123.88 42.55,122.97">
            <param key="origId" value="286_1"/>
        </lane>
    </edge>
    <edge id=":189_32" function="internal">
        <lane id=":189_32_0" index="0" disallow="pedestrian tram rail_urban rail rail_electric rail_fast ship" speed="13.45" length="33.34" width="3.50" shape="61.41,129.52 61.91,124.77 65.96,115.39 72.68,109.75 82.06,107.86">
            <param key="origId" value="382_1"/>
            <param key="signalID" value="952"/>
        </lane>
    </edge>
    <edge id=":189_33" function="internal">
        <lane id=":189_33_0" index="0" disallow="pedestrian tram rail_urban rail rail_electric rail_fast ship" speed="12.98" length="31.35" width="3.50" shape="61.41,130.49 61.91,126.30 65.95,118.02 72.68,113.04 82.07,111.36">
            <param key="origId" value="375_1"/>
            <param key="signalID" value="952"/>
        </lane>
    </edge>
    <edge id=":23_0" function="internal">
        <lane id=":23_0_0" index="0" speed="13.89" length="40.04" width="6.00" shape="82.41,211.62 42.38,212.04">
            <param key="origId" value="90_5"/>
        </lane>
        <lane id=":23_0_1" index="1" disallow="all" speed="1.39" length="40.04" width="0.63" shape="82.38,208.31 42.34,208.72">
            <param key="origId" value="90_4"/>
        </lane>
        <lane id=":23_0_2" index="2" disallow="all" speed="1.39" length="40.04" width="2.00" shape="82.36,206.99 42.33,207.41">
            <param key="origId" value="90_3"/>
        </lane>
        <lane id=":23_0_3" index="3" disallow="pedestrian tram rail_urban rail rail_electric rail_fast ship" speed="13.89" length="40.04" width="3.50" shape="82.34,204.24 42.30,204.66">
            <param key="origId" value="90_2"/>
            <param key="signalID" value="943"/>
        </lane>
        <lane id=":23_0_4" index="4" disallow="pedestrian tram rail_urban rail rail_electric rail_fast ship" speed="13.89" length="40.04" width="3.50" shape="82.30,200.74 42.26,201.16">
            <param key="origId" value="90_1"/>
            <param key="signalID" value="943"/>
        </lane>
    </edge>
    <edge id=":23_5" function="internal">
        <lane id=":23_5_0" index="0" disallow="pedestrian tram rail_urban rail rail_electric rail_fast ship" speed="12.26" length="6.02" width="3.50" shape="82.30,200.74 76.34,199.94">
            <param key="origId" value="24_1"/>
            <param key="signalID" value="944 944 944"/>
        </lane>
    </edge>
    <edge id=":23_14" function="internal">
        <lane id=":23_14_0" index="0" disallow="pedestrian tram rail_urban rail rail_electric rail_fast ship" speed="12.26" length="28.70" width="3.50" shape="76.34,199.94 72.91,199.48 66.18,195.50 62.11,188.77 60.70,179.32">
            <param key="origId" value="24_1"/>
            <param key="signalID" value="944 944 944"/>
        </lane>
    </edge>
    <edge id=":23_6" function="internal">
        <lane id=":23_6_0" index="0" disallow="pedestrian tram rail_urban rail rail_electric rail_fast ship" speed="10.14" length="23.40" width="3.50" shape="67.70,179.26 68.65,185.65 71.39,190.20 75.91,192.89 82.23,193.74">
            <param key="origId" value="41_1"/>
        </lane>
        <lane id=":23_6_1" index="1" disallow="pedestrian tram rail_urban rail rail_electric rail_fast ship" speed="10.73" length="26.29" width="3.50" shape="67.70,179.26 68.66,187.19 71.41,192.82 75.94,196.17 82.26,197.24">
            <param key="origId" value="33_1"/>
        </lane>
    </edge>
    <edge id=":23_8" function="internal">
        <lane id=":23_8_0" index="0" disallow="pedestrian tram rail_urban rail rail_electric rail_fast ship" speed="12.86" length="38.15" width="3.50" shape="64.20,179.29 62.90,190.30 58.82,198.20 51.95,202.98 42.30,204.66">
            <param key="origId" value="100_1"/>
            <param key="signalID" value="944 944 945"/>
        </lane>
        <lane id=":23_8_1" index="1" disallow="pedestrian tram rail_urban rail rail_electric rail_fast ship" speed="12.39" length="35.30" width="3.50" shape="64.20,179.29 62.89,188.77 58.80,195.58 51.92,199.70 42.26,201.16">
            <param key="origId" value="105_1"/>
            <param key="signalID" value="944 944 945"/>
        </lane>
    </edge>
    <edge id=":23_10" function="internal">
        <lane id=":23_10_0" index="0" disallow="all" speed="1.39" length="40.04" width="2.00" shape="42.16,191.41 82.20,190.99">
            <param key="origId" value="89_-3"/>
            <param key="signalID" value="943"/>
        </lane>
    </edge>
    <edge id=":23_11" function="internal">
        <lane id=":23_11_0" index="0" disallow="pedestrian tram rail_urban rail rail_electric rail_fast ship" speed="10.30" length="6.26" width="3.50" shape="42.19,194.16 48.38,193.23">
            <param key="origId" value="125_-1"/>
        </lane>
    </edge>
    <edge id=":23_12" function="internal">
        <lane id=":23_12_0" index="0" disallow="pedestrian tram rail_urban rail rail_electric rail_fast ship" speed="13.89" length="40.04" width="3.50" shape="42.19,194.16 82.23,193.74">
            <param key="origId" value="89_-2"/>
            <param key="signalID" value="943 945"/>
        </lane>
        <lane id=":23_12_1" index="1" disallow="pedestrian tram rail_urban rail rail_electric rail_fast ship" speed="13.89" length="40.04" width="3.50" shape="42.23,197.66 82.26,197.24">
            <param key="origId" value="89_-1"/>
            <param key="signalID" value="943 945"/>
        </lane>
    </edge>
    <edge id=":23_15" function="internal">
        <lane id=":23_15_0" index="0" disallow="pedestrian tram rail_urban rail rail_electric rail_fast ship" speed="10.30" length="17.77" width="3.50" shape="48.38,193.23 48.80,193.17 53.50,190.38 56.31,185.77 57.20,179.34">
            <param key="origId" value="125_-1"/>
        </lane>
    </edge>
    <edge id=":468_0" function="internal">
        <lane id=":468_0_0" index="0" disallow="all" speed="1.39" length="42.87" width="2.00" shape="82.21,8.67 69.48,8.19 60.68,7.37 52.00,7.46 39.60,9.71">
            <param key="origId" value="515_-3"/>
            <param key="signalID" value="953"/>
        </lane>
    </edge>
    <edge id=":468_1" function="internal">
        <lane id=":468_1_0" index="0" disallow="pedestrian tram rail_urban rail rail_electric rail_fast ship" speed="10.25" length="4.51" width="3.50" shape="82.20,5.92 77.74,6.62">
            <param key="origId" value="476_-1"/>
        </lane>
        <lane id=":468_1_1" index="1" disallow="pedestrian tram rail_urban rail rail_electric rail_fast ship" speed="10.82" length="5.28" width="3.50" shape="82.20,5.92 76.96,6.58">
            <param key="origId" value="486_-1"/>
        </lane>
    </edge>
    <edge id=":468_3" function="internal">
        <lane id=":468_3_0" index="0" disallow="pedestrian tram rail_urban rail rail_electric rail_fast ship" speed="13.89" length="43.90" width="3.50" shape="82.20,5.92 69.27,5.44 60.35,4.63 51.54,4.75 38.95,7.04">
            <param key="origId" value="515_-2"/>
            <param key="signalID" value="953 954"/>
        </lane>
        <lane id=":468_3_1" index="1" disallow="pedestrian tram rail_urban rail rail_electric rail_fast ship" speed="13.89" length="43.90" width="3.50" shape="82.17,2.42 69.01,1.94 59.92,1.14 50.95,1.29 38.13,3.64">
            <param key="origId" value="515_-1"/>
            <param key="signalID" value="953 954"/>
        </lane>
    </edge>
    <edge id=":468_12" function="internal">
        <lane id=":468_12_0" index="0" disallow="pedestrian tram rail_urban rail rail_electric rail_fast ship" speed="10.25" length="19.18" width="3.50" shape="77.74,6.62 75.94,6.90 71.47,9.74 68.77,14.45 67.86,21.02">
            <param key="origId" value="476_-1"/>
        </lane>
    </edge>
    <edge id=":468_13" function="internal">
        <lane id=":468_13_0" index="0" disallow="pedestrian tram rail_urban rail rail_electric rail_fast ship" speed="10.82" length="21.25" width="3.50" shape="76.96,6.58 74.41,6.90 68.84,9.75 65.49,14.45 64.36,21.01">
            <param key="origId" value="486_-1"/>
        </lane>
    </edge>
    <edge id=":468_5" function="internal">
        <lane id=":468_5_0" index="0" speed="13.89" length="46.40" width="6.00" shape="34.76,-10.35 48.53,-12.93 58.17,-13.19 67.94,-12.43 82.09,-11.97">
            <param key="origId" value="516_5"/>
        </lane>
        <lane id=":468_5_1" index="1" disallow="all" speed="1.39" length="46.40" width="0.63" shape="35.54,-7.12 49.09,-9.65 58.58,-9.88 68.19,-9.12 82.11,-8.65">
            <param key="origId" value="516_4"/>
        </lane>
        <lane id=":468_5_2" index="2" disallow="all" speed="1.39" length="46.40" width="2.00" shape="35.85,-5.84 49.31,-8.35 58.74,-8.57 68.28,-7.80 82.11,-7.33">
            <param key="origId" value="516_3"/>
        </lane>
        <lane id=":468_5_3" index="3" disallow="pedestrian tram rail_urban rail rail_electric rail_fast ship" speed="13.89" length="46.40" width="3.50" shape="36.49,-3.17 49.77,-5.63 59.07,-5.83 68.49,-5.05 82.13,-4.58">
            <param key="origId" value="516_2"/>
            <param key="signalID" value="955"/>
        </lane>
        <lane id=":468_5_4" index="4" disallow="pedestrian tram rail_urban rail rail_electric rail_fast ship" speed="13.89" length="46.40" width="3.50" shape="37.31,0.23 50.36,-2.17 59.50,-2.34 68.75,-1.56 82.15,-1.08">
            <param key="origId" value="516_1"/>
            <param key="signalID" value="956"/>
        </lane>
    </edge>
    <edge id=":468_10" function="internal">
        <lane id=":468_10_0" index="0" disallow="pedestrian tram rail_urban rail rail_electric rail_fast ship" speed="10.23" length="28.08" width="3.50" shape="57.36,20.99 56.23,13.22 52.78,8.30 47.03,6.24 38.95,7.04">
            <param key="origId" value="472_1"/>
            <param key="signalID" value="954"/>
        </lane>
        <lane id=":468_10_1" index="1" disallow="pedestrian tram rail_urban rail rail_electric rail_fast ship" speed="11.33" length="34.78" width="3.50" shape="60.86,21.00 59.46,11.34 55.21,5.23 48.10,2.66 38.13,3.64">
            <param key="origId" value="469_1"/>
            <param key="signalID" value="954"/>
        </lane>
    </edge>
    <edge id=":532_0" function="internal">
        <lane id=":532_0_0" index="0" disallow="all" speed="1.39" length="47.88" width="2.00" shape="205.99,140.48 205.66,92.60">
            <param key="origId" value="565_3"/>
        </lane>
    </edge>
    <edge id=":532_1" function="internal">
        <lane id=":532_1_0" index="0" disallow="pedestrian tram rail_urban rail rail_electric rail_fast ship" speed="11.00" length="6.71" width="3.50" shape="208.74,140.46 207.84,133.81">
            <param key="origId" value="655_1"/>
        </lane>
    </edge>
    <edge id=":532_2" function="internal">
        <lane id=":532_2_0" index="0" disallow="pedestrian tram rail_urban rail rail_electric rail_fast ship" speed="13.89" length="47.88" width="3.50" shape="208.74,140.46 208.41,92.58">
            <param key="origId" value="565_2"/>
            <param key="signalID" value="957"/>
        </lane>
        <lane id=":532_2_1" index="1" disallow="pedestrian tram rail_urban rail rail_electric rail_fast ship" speed="13.89" length="47.88" width="3.50" shape="212.24,140.44 211.91,92.55">
            <param key="origId" value="565_1"/>
            <param key="signalID" value="957"/>
        </lane>
    </edge>
    <edge id=":532_15" function="internal">
        <lane id=":532_15_0" index="0" disallow="pedestrian tram rail_urban rail rail_electric rail_fast ship" speed="11.00" length="20.88" width="3.50" shape="207.84,133.81 207.68,132.61 204.60,127.00 199.51,123.65 192.42,122.55">
            <param key="origId" value="655_1"/>
        </lane>
    </edge>
    <edge id=":532_4" function="internal">
        <lane id=":532_4_0" index="0" speed="13.89" length="47.88" width="6.00" shape="226.30,92.46 226.63,140.34">
            <param key="origId" value="566_-5"/>
            <param key="signalID" value="959 958"/>
        </lane>
        <lane id=":532_4_1" index="1" disallow="all" speed="1.39" length="47.88" width="0.63" shape="222.98,92.48 223.31,140.36">
            <param key="origId" value="566_-4"/>
            <param key="signalID" value="959 958"/>
        </lane>
        <lane id=":532_4_2" index="2" disallow="all" speed="1.39" length="47.88" width="2.00" shape="221.66,92.49 221.99,140.37">
            <param key="origId" value="566_-3"/>
            <param key="signalID" value="959 958"/>
        </lane>
        <lane id=":532_4_3" index="3" disallow="pedestrian tram rail_urban rail rail_electric rail_fast ship" speed="13.89" length="47.88" width="3.50" shape="218.91,92.51 219.24,140.39">
            <param key="origId" value="566_-2"/>
            <param key="signalID" value="959 958 958"/>
        </lane>
        <lane id=":532_4_4" index="4" disallow="pedestrian tram rail_urban rail rail_electric rail_fast ship" speed="13.89" length="47.88" width="3.50" shape="215.41,92.53 215.74,140.41">
            <param key="origId" value="566_-1"/>
            <param key="signalID" value="959 958 958"/>
        </lane>
    </edge>
    <edge id=":532_9" function="internal">
        <lane id=":532_9_0" index="0" disallow="pedestrian tram rail_urban rail rail_electric rail_fast ship" speed="13.59" length="7.78" width="3.50" shape="215.41,92.53 214.61,100.26">
            <param key="origId" value="584_-1"/>
            <param key="signalID" value="958 957 958"/>
        </lane>
        <lane id=":532_9_1" index="1" disallow="pedestrian tram rail_urban rail rail_electric rail_fast ship" speed="13.13" length="6.90" width="3.50" shape="215.41,92.53 214.60,99.38">
            <param key="origId" value="597_-1"/>
            <param key="signalID" value="958 957 958"/>
        </lane>
    </edge>
    <edge id=":532_16" function="internal">
        <lane id=":532_16_0" index="0" disallow="pedestrian tram rail_urban rail rail_electric rail_fast ship" speed="13.59" length="35.18" width="3.50" shape="214.61,100.26 214.05,105.64 209.77,115.01 202.56,120.65 192.42,122.55">
            <param key="origId" value="584_-1"/>
            <param key="signalID" value="958 957 958"/>
        </lane>
    </edge>
    <edge id=":532_17" function="internal">
        <lane id=":532_17_0" index="0" disallow="pedestrian tram rail_urban rail rail_electric rail_fast ship" speed="13.13" length="33.12" width="3.50" shape="214.60,99.38 214.04,104.11 209.75,112.39 202.54,117.37 192.41,119.05">
            <param key="origId" value="597_-1"/>
            <param key="signalID" value="958 957 958"/>
        </lane>
    </edge>
    <edge id=":532_11" function="internal">