<?xml version="1.0" encoding="UTF-8"?>

<!-- generated on 2025-01-22 23:08:50 by Eclipse SUMO netconvert Version 1.18.0
<configuration xmlns:xsi="http://www.w3.org/2001/XMLSchema-instance" xsi:noNamespaceSchemaLocation="http://sumo.dlr.de/xsd/netconvertConfiguration.xsd">

    <input>
        <opendrive-files value="Town03.xodr"/>
    </input>

    <output>
        <output-file value="Town03.net.xml"/>
        <output.original-names value="true"/>
    </output>

    <processing>
        <geometry.remove value="true"/>
        <geometry.min-radius.fix value="true"/>
    </processing>

    <tls_building>
        <tls.discard-simple value="true"/>
        <tls.join value="true"/>
        <tls.guess-signals value="true"/>
    </tls_building>

    <junctions>
        <no-turnarounds.except-deadend value="true"/>
    </junctions>

    <formats>
        <opendrive.import-all-lanes value="true"/>
        <opendrive.curve-resolution value="1"/>
    </formats>

</configuration>
-->

<net version="1.16" junctionCornerDetail="5" rectangularLaneCut="true" limitTurnSpeed="5.50" xmlns:xsi="http://www.w3.org/2001/XMLSchema-instance" xsi:noNamespaceSchemaLocation="http://sumo.dlr.de/xsd/net_file.xsd">

    <location netOffset="286.97,269.44" convBoundary="0.00,0.00,597.84,582.58" origBoundary="0.000000,0.000000,0.000000,0.000000" projParameter="+proj=tmerc +lat_0=0 +lon_0=0 +k=1 +x_0=0 +y_0=0 +datum=WGS84 +units=m  +vunits=m +no_defs "/>


    <edge id=":1019_0" function="internal">
        <lane id=":1019_0_0" index="0" speed="13.89" length="22.61" width="2.00" shape="300.65,90.30 300.51,112.91">
            <param key="origId" value="1030_9"/>
        </lane>
        <lane id=":1019_0_1" index="1" speed="13.89" length="22.61" width="2.00" shape="298.65,90.29 298.51,112.90">
            <param key="origId" value="1030_8"/>
        </lane>
        <lane id=":1019_0_2" index="2" disallow="all" speed="1.39" length="22.61" width="0.63" shape="297.33,90.28 297.19,112.89">
            <param key="origId" value="1030_7"/>
        </lane>
        <lane id=":1019_0_3" index="3" disallow="all" speed="1.39" length="22.61" width="2.50" shape="295.77,90.27 295.62,112.88">
            <param key="origId" value="1030_6"/>
        </lane>
        <lane id=":1019_0_4" index="4" disallow="pedestrian tram rail_urban rail rail_electric rail_fast ship" speed="13.89" length="22.61" width="3.50" shape="292.77,90.25 292.62,112.86">
            <param key="origId" value="1030_5"/>
        </lane>
        <lane id=":1019_0_5" index="5" disallow="pedestrian tram rail_urban rail rail_electric rail_fast ship" speed="13.89" length="22.61" width="3.50" shape="289.27,90.23 289.12,112.84">
            <param key="origId" value="1030_4"/>
        </lane>
        <lane id=":1019_0_6" index="6" disallow="all" speed="1.39" length="22.61" width="0.50" shape="287.27,90.21 287.12,112.82">
            <param key="origId" value="1030_3"/>
        </lane>
        <lane id=":1019_0_7" index="7" disallow="all" speed="1.39" length="22.61" width="3.50" shape="285.27,90.20 285.12,112.81">
            <param key="origId" value="1030_2"/>
        </lane>
        <lane id=":1019_0_8" index="8" disallow="all" speed="1.39" length="22.61" width="0.50" shape="283.27,90.19 283.12,112.80">
            <param key="origId" value="1030_1"/>
        </lane>
    </edge>
    <edge id=":1019_9" function="internal">
        <lane id=":1019_9_0" index="0" disallow="all" speed="1.39" length="22.61" width="2.50" shape="274.62,112.74 274.77,90.13">
            <param key="origId" value="1031_-3"/>
        </lane>
    </edge>
    <edge id=":1019_10" function="internal">
        <lane id=":1019_10_0" index="0" disallow="pedestrian tram rail_urban rail rail_electric rail_fast ship" speed="11.04" length="4.60" width="3.50" shape="277.62,112.76 276.83,108.23">
            <param key="origId" value="1020_-1"/>
        </lane>
    </edge>
    <edge id=":1019_11" function="internal">
        <lane id=":1019_11_0" index="0" disallow="pedestrian tram rail_urban rail rail_electric rail_fast ship" speed="13.89" length="22.61" width="3.50" shape="277.62,112.76 277.77,90.15">
            <param key="origId" value="1031_-2"/>
        </lane>
        <lane id=":1019_11_1" index="1" disallow="pedestrian tram rail_urban rail rail_electric rail_fast ship" speed="13.89" length="22.61" width="3.50" shape="281.12,112.79 281.27,90.18">
            <param key="origId" value="1031_-1"/>
        </lane>
    </edge>
    <edge id=":1019_13" function="internal">
        <lane id=":1019_13_0" index="0" disallow="pedestrian tram rail_urban rail rail_electric rail_fast ship" speed="11.04" length="16.18" width="3.50" shape="276.83,108.23 274.38,104.33 270.28,101.06 264.52,98.42">
            <param key="origId" value="1020_-1"/>
        </lane>
    </edge>
    <edge id=":103_0" function="internal">
        <lane id=":103_0_0" index="0" disallow="pedestrian tram rail_urban rail rail_electric rail_fast ship" speed="10.55" length="25.48" width="3.50" shape="308.17,138.65 301.29,139.55 296.36,142.47 293.39,147.42 292.36,154.38">
            <param key="origId" value="203_1"/>
            <param key="signalID" value="1997"/>
        </lane>
    </edge>
    <edge id=":103_1" function="internal">
        <lane id=":103_1_0" index="0" disallow="pedestrian tram rail_urban rail rail_electric rail_fast ship" speed="13.89" length="41.79" width="3.50" shape="308.17,138.65 266.38,138.51">
            <param key="origId" value="144_1"/>
            <param key="signalID" value="1997"/>
        </lane>
    </edge>
    <edge id=":103_2" function="internal">
        <lane id=":103_2_0" index="0" disallow="pedestrian tram rail_urban rail rail_electric rail_fast ship" speed="12.82" length="7.70" width="3.50" shape="308.17,138.65 300.52,137.77">
            <param key="origId" value="227_1"/>
            <param key="signalID" value="1995"/>
        </lane>
    </edge>
    <edge id=":103_18" function="internal">
        <lane id=":103_18_0" index="0" disallow="pedestrian tram rail_urban rail rail_electric rail_fast ship" speed="12.82" length="30.04" width="3.50" shape="300.52,137.77 296.27,137.28 287.79,133.55 282.73,127.47 281.08,119.04">
            <param key="origId" value="227_1"/>
            <param key="signalID" value="1995"/>
        </lane>
    </edge>
    <edge id=":103_3" function="internal">
        <lane id=":103_3_0" index="0" disallow="all" speed="1.39" length="35.27" width="2.50" shape="295.58,119.13 295.36,154.40">
            <param key="origId" value="183_6"/>
        </lane>
    </edge>
    <edge id=":103_4" function="internal">
        <lane id=":103_4_0" index="0" disallow="pedestrian tram rail_urban rail rail_electric rail_fast ship" speed="10.61" length="6.11" width="3.50" shape="292.58,119.11 293.40,125.17">
            <param key="origId" value="222_1"/>
            <param key="signalID" value="1996"/>
        </lane>
    </edge>
    <edge id=":103_5" function="internal">
        <lane id=":103_5_0" index="0" disallow="pedestrian tram rail_urban rail rail_electric rail_fast ship" speed="13.89" length="35.27" width="3.50" shape="292.58,119.11 292.36,154.38">
            <param key="origId" value="183_5"/>
            <param key="signalID" value="1995"/>
        </lane>
        <lane id=":103_5_1" index="1" disallow="pedestrian tram rail_urban rail rail_electric rail_fast ship" speed="13.89" length="35.27" width="3.50" shape="289.08,119.09 288.86,154.36">
            <param key="origId" value="183_4"/>
            <param key="signalID" value="1995"/>
        </lane>
    </edge>
    <edge id=":103_7" function="internal">
        <lane id=":103_7_0" index="0" disallow="pedestrian tram rail_urban rail rail_electric rail_fast ship" speed="12.11" length="15.64" width="3.50" shape="289.08,119.09 287.62,127.78 283.71,133.38">
            <param key="origId" value="123_1"/>
        </lane>
    </edge>
    <edge id=":103_8" function="internal">
        <lane id=":103_8_0" index="0" disallow="all" speed="1.39" length="35.27" width="0.50" shape="287.08,119.08 286.86,154.35">
            <param key="origId" value="183_3"/>
        </lane>
        <lane id=":103_8_1" index="1" disallow="all" speed="1.39" length="35.27" width="0.50" shape="283.08,119.05 282.86,154.32">
            <param key="origId" value="183_1"/>
        </lane>
    </edge>
    <edge id=":103_19" function="internal">
        <lane id=":103_19_0" index="0" disallow="pedestrian tram rail_urban rail rail_electric rail_fast ship" speed="10.61" length="19.39" width="3.50" shape="293.40,125.17 293.52,126.04 296.44,131.03 301.34,134.06 308.22,135.15">
            <param key="origId" value="222_1"/>
            <param key="signalID" value="1996"/>
        </lane>
    </edge>
    <edge id=":103_20" function="internal">
        <lane id=":103_20_0" index="0" disallow="pedestrian tram rail_urban rail rail_electric rail_fast ship" speed="12.11" length="18.51" width="3.50" shape="283.71,133.38 283.34,133.91 276.27,137.48 266.38,138.51">
            <param key="origId" value="123_1"/>
        </lane>
    </edge>
    <edge id=":103_10" function="internal">
        <lane id=":103_10_0" index="0" disallow="pedestrian tram rail_urban rail rail_electric rail_fast ship" speed="9.81" length="22.05" width="3.50" shape="266.46,135.01 271.29,134.10 274.75,131.13 276.85,126.11 277.58,119.02">
            <param key="origId" value="130_-1"/>
            <param key="signalID" value="1994 1996"/>
        </lane>
    </edge>
    <edge id=":103_11" function="internal">
        <lane id=":103_11_0" index="0" disallow="pedestrian tram rail_urban rail rail_electric rail_fast ship" speed="13.89" length="41.76" width="3.50" shape="266.46,135.01 308.22,135.15">
            <param key="origId" value="139_-1"/>
            <param key="signalID" value="1996"/>
        </lane>
    </edge>
    <edge id=":103_12" function="internal">
        <lane id=":103_12_0" index="0" disallow="pedestrian tram rail_urban rail rail_electric rail_fast ship" speed="12.15" length="6.24" width="3.50" shape="266.46,135.01 272.64,135.89">
            <param key="origId" value="110_-1"/>
            <param key="signalID" value="1996 1997"/>
        </lane>
    </edge>
    <edge id=":103_21" function="internal">
        <lane id=":103_21_0" index="0" disallow="pedestrian tram rail_urban rail rail_electric rail_fast ship" speed="12.15" length="27.32" width="3.50" shape="272.64,135.89 276.31,136.41 283.32,140.10 287.50,146.08 288.86,154.36">
            <param key="origId" value="110_-1"/>
            <param key="signalID" value="1996 1997"/>
        </lane>
    </edge>
    <edge id=":103_13" function="internal">
        <lane id=":103_13_0" index="0" disallow="all" speed="1.39" length="35.27" width="2.50" shape="274.36,154.27 274.58,119.00">
            <param key="origId" value="184_-3"/>
        </lane>
    </edge>
    <edge id=":103_14" function="internal">
        <lane id=":103_14_0" index="0" disallow="pedestrian tram rail_urban rail rail_electric rail_fast ship" speed="9.85" length="7.16" width="3.50" shape="277.36,154.29 276.71,147.48 276.59,147.19">
            <param key="origId" value="104_-1"/>
        </lane>
    </edge>
    <edge id=":103_15" function="internal">
        <lane id=":103_15_0" index="0" disallow="pedestrian tram rail_urban rail rail_electric rail_fast ship" speed="13.89" length="35.27" width="3.50" shape="277.36,154.29 277.58,119.02">
            <param key="origId" value="184_-2"/>
            <param key="signalID" value="1994"/>
        </lane>
        <lane id=":103_15_1" index="1" disallow="pedestrian tram rail_urban rail rail_electric rail_fast ship" speed="13.89" length="35.27" width="3.50" shape="280.86,154.31 281.08,119.04">
            <param key="origId" value="184_-1"/>
            <param key="signalID" value="1994"/>
        </lane>
    </edge>
    <edge id=":103_17" function="internal">
        <lane id=":103_17_0" index="0" disallow="pedestrian tram rail_urban rail rail_electric rail_fast ship" speed="12.76" length="4.44" width="3.50" shape="280.86,154.31 281.76,149.96">
            <param key="origId" value="213_-1"/>
            <param key="signalID" value="1994 1995"/>
        </lane>
    </edge>
    <edge id=":103_22" function="internal">
        <lane id=":103_22_0" index="0" disallow="pedestrian tram rail_urban rail rail_electric rail_fast ship" speed="9.85" length="14.52" width="3.50" shape="276.59,147.19 274.66,142.58 271.22,139.59 266.38,138.51">
            <param key="origId" value="104_-1"/>
        </lane>
    </edge>
    <edge id=":103_23" function="internal">
        <lane id=":103_23_0" index="0" disallow="pedestrian tram rail_urban rail rail_electric rail_fast ship" speed="12.76" length="33.41" width="3.50" shape="281.76,149.96 282.62,145.78 287.76,139.75 296.30,136.20 308.22,135.15">
            <param key="origId" value="213_-1"/>
            <param key="signalID" value="1994 1995"/>
        </lane>
    </edge>
    <edge id=":1038_0" function="internal">
        <lane id=":1038_0_0" index="0" speed="13.89" length="35.56" width="2.00" shape="473.47,221.48 437.90,221.39">
            <param key="origId" value="1050_-6"/>
        </lane>
        <lane id=":1038_0_1" index="1" speed="13.89" length="35.56" width="2.00" shape="473.47,219.48 437.91,219.39">
            <param key="origId" value="1050_-5"/>
        </lane>
        <lane id=":1038_0_2" index="2" speed="13.89" length="35.56" width="2.00" shape="473.48,217.48 437.91,217.39">
            <param key="origId" value="1050_-4"/>
        </lane>
        <lane id=":1038_0_3" index="3" disallow="all" speed="1.39" length="35.56" width="0.63" shape="473.48,216.16 437.92,216.07">
            <param key="origId" value="1050_-3"/>
        </lane>
        <lane id=":1038_0_4" index="4" disallow="pedestrian tram rail_urban rail rail_electric rail_fast ship" speed="13.89" length="35.56" width="3.50" shape="473.49,210.59 437.93,210.50">
            <param key="origId" value="1050_-1"/>
        </lane>
    </edge>
    <edge id=":1038_5" function="internal">
        <lane id=":1038_5_0" index="0" disallow="pedestrian tram rail_urban rail rail_electric rail_fast ship" speed="11.71" length="6.00" width="3.50" shape="473.49,210.59 467.56,209.72,0.03">
            <param key="origId" value="1066_-1"/>
        </lane>
    </edge>
    <edge id=":1038_10" function="internal">
        <lane id=":1038_10_0" index="0" disallow="pedestrian tram rail_urban rail rail_electric rail_fast ship" speed="11.71" length="25.44" width="3.50" shape="467.56,209.72,0.03 465.03,209.34,0.04 458.98,205.65,0.07 455.36,199.51,0.11 454.15,190.93,0.15">
            <param key="origId" value="1066_-1"/>
        </lane>
    </edge>
    <edge id=":1038_6" function="internal">
        <lane id=":1038_6_0" index="0" disallow="pedestrian tram rail_urban rail rail_electric rail_fast ship" speed="10.65" length="25.80" width="3.50" shape="457.65,190.93,0.15 458.64,197.99,0.11 461.61,203.03,0.07 466.57,206.07,0.04 473.50,207.09">
            <param key="origId" value="1059_-1"/>
        </lane>
    </edge>
    <edge id=":1038_7" function="internal">
        <lane id=":1038_7_0" index="0" disallow="pedestrian tram rail_urban rail rail_electric rail_fast ship" speed="11.74" length="31.70" width="3.50" shape="457.65,190.93,0.15 456.42,199.51,0.11 452.72,205.63,0.07 446.56,209.30,0.04 437.93,210.50">
            <param key="origId" value="1070_-1"/>
        </lane>
    </edge>
    <edge id=":1038_8" function="internal">
        <lane id=":1038_8_0" index="0" disallow="pedestrian tram rail_urban rail rail_electric rail_fast ship" speed="10.68" length="26.04" width="3.50" shape="437.94,207.00 445.03,206.01,0.04 450.10,203.00,0.07 453.14,197.98,0.11 454.15,190.93,0.15">
            <param key="origId" value="1073_1"/>
        </lane>
    </edge>
    <edge id=":1038_9" function="internal">
        <lane id=":1038_9_0" index="0" disallow="pedestrian tram rail_urban rail rail_electric rail_fast ship" speed="13.89" length="35.56" width="3.50" shape="437.94,207.00 473.50,207.09">
            <param key="origId" value="1049_1"/>
        </lane>
    </edge>
    <edge id=":1082_0" function="internal">
        <lane id=":1082_0_0" index="0" disallow="all" speed="1.39" length="25.71" width="0.63" shape="316.54,281.67,-0.01 310.60,282.87,-0.01 305.85,286.08,-0.01 302.30,291.30,-0.00 299.93,298.52">
            <param key="origId" value="1105_5"/>
        </lane>
        <lane id=":1082_0_1" index="1" disallow="all" speed="1.39" length="27.46" width="1.89" shape="316.50,280.33,-0.01 310.12,281.61,-0.01 305.03,285.03,-0.01 301.22,290.58,-0.00 298.70,298.26">
            <param key="origId" value="1105_4"/>
        </lane>
    </edge>
    <edge id=":1082_2" function="internal">
        <lane id=":1082_2_0" index="0" disallow="all" speed="1.39" length="32.92" width="0.50" shape="316.50,280.33,-0.01 307.51,282.70,-0.01 302.13,287.45,-0.01 296.76,292.18,-0.00 287.76,294.48">
            <param key="origId" value="1089_5"/>
        </lane>
    </edge>
    <edge id=":1082_3" function="internal">
        <lane id=":1082_3_0" index="0" disallow="pedestrian tram rail_urban rail rail_electric rail_fast ship" speed="12.86" length="20.44" width="3.50" shape="316.41,277.55,-0.01 309.09,279.00,-0.01 303.26,282.84,-0.01 299.83,287.76,-0.00">
            <param key="origId" value="1105_3"/>
        </lane>
    </edge>
    <edge id=":1082_4" function="internal">
        <lane id=":1082_4_0" index="0" disallow="pedestrian tram rail_urban rail rail_electric rail_fast ship" speed="13.89" length="33.33" width="3.50" shape="316.41,277.55,-0.01 307.38,280.05,-0.01 302.07,285.06,-0.01 296.75,290.06,-0.00 287.71,292.48">
            <param key="origId" value="1089_4"/>
        </lane>
    </edge>
    <edge id=":1082_5" function="internal">
        <lane id=":1082_5_0" index="0" disallow="pedestrian tram rail_urban rail rail_electric rail_fast ship" speed="13.76" length="24.83" width="3.50" shape="316.31,274.06,-0.01 307.74,275.71,-0.01 300.94,280.08,-0.01 296.30,286.62,-0.00">
            <param key="origId" value="1105_2"/>
        </lane>
    </edge>
    <edge id=":1082_6" function="internal">
        <lane id=":1082_6_0" index="0" disallow="pedestrian tram rail_urban rail rail_electric rail_fast ship" speed="13.89" length="33.30" width="3.50" shape="316.31,274.06,-0.01 307.28,276.55,-0.01 301.97,281.56,-0.01 296.65,286.55,-0.00 287.63,288.98">
            <param key="origId" value="1089_3"/>
        </lane>
        <lane id=":1082_6_1" index="1" disallow="all" speed="1.39" length="33.30" width="0.50" shape="316.24,272.06,-0.01 307.22,274.55,-0.01 301.91,279.56,-0.01 296.60,284.55,-0.00 287.58,286.98">
            <param key="origId" value="1089_2"/>
        </lane>
    </edge>
    <edge id=":1082_17" function="internal">
        <lane id=":1082_17_0" index="0" disallow="pedestrian tram rail_urban rail rail_electric rail_fast ship" speed="12.86" length="10.69" width="3.50" shape="299.83,287.76,-0.00 298.92,289.07,-0.00 296.06,297.70">
            <param key="origId" value="1105_3"/>
        </lane>
    </edge>
    <edge id=":1082_18" function="internal">
        <lane id=":1082_18_0" index="0" disallow="pedestrian tram rail_urban rail rail_electric rail_fast ship" speed="13.76" length="11.00" width="3.50" shape="296.30,286.62,-0.00 295.91,287.16,-0.00 292.64,296.97">
            <param key="origId" value="1105_2"/>
        </lane>
    </edge>
    <edge id=":1082_8" function="internal">
        <lane id=":1082_8_0" index="0" disallow="all" speed="1.39" length="32.15" width="1.89" shape="311.91,269.59 310.21,278.56 306.46,284.06 302.13,289.49 298.70,298.26">
            <param key="origId" value="1122_-4"/>
        </lane>
    </edge>
    <edge id=":1082_9" function="internal">
        <lane id=":1082_9_0" index="0" disallow="all" speed="1.39" length="3.48" width="0.50" shape="311.91,269.59 311.38,273.03">
            <param key="origId" value="1100_-6"/>
        </lane>
    </edge>
    <edge id=":1082_10" function="internal">
        <lane id=":1082_10_0" index="0" disallow="pedestrian tram rail_urban rail rail_electric rail_fast ship" speed="13.89" length="32.02" width="3.50" shape="309.91,269.56 308.11,278.42 304.13,283.76 299.58,289.04 296.06,297.70">
            <param key="origId" value="1122_-3"/>
        </lane>
    </edge>
    <edge id=":1082_11" function="internal">
        <lane id=":1082_11_0" index="0" disallow="pedestrian tram rail_urban rail rail_electric rail_fast ship" speed="12.69" length="3.80" width="3.50" shape="309.91,269.56 309.33,273.32">
            <param key="origId" value="1100_-5"/>
        </lane>
    </edge>
    <edge id=":1082_12" function="internal">
        <lane id=":1082_12_0" index="0" disallow="pedestrian tram rail_urban rail rail_electric rail_fast ship" speed="13.89" length="31.39" width="3.50" shape="306.41,269.51 304.61,278.16 300.64,283.36 296.11,288.50 292.64,296.97">
            <param key="origId" value="1122_-2"/>
        </lane>
    </edge>
    <edge id=":1082_13" function="internal">
        <lane id=":1082_13_0" index="0" disallow="pedestrian tram rail_urban rail rail_electric rail_fast ship" speed="11.72" length="5.30" width="3.50" shape="306.41,269.51 305.61,274.75">
            <param key="origId" value="1100_-4"/>
        </lane>
        <lane id=":1082_13_1" index="1" disallow="all" speed="1.39" length="9.31" width="0.50" shape="304.41,269.47 303.26,276.98 302.39,278.46">
            <param key="origId" value="1100_-3"/>
        </lane>
        <lane id=":1082_13_2" index="2" disallow="all" speed="1.39" length="10.81" width="0.63" shape="303.85,269.47 302.73,276.73 300.98,279.71">
            <param key="origId" value="1100_-2"/>
        </lane>
        <lane id=":1082_13_3" index="3" speed="10.44" length="12.96" width="2.00" shape="302.53,269.45 301.50,276.15 298.66,281.00 298.19,281.30">
            <param key="origId" value="1100_-1"/>
        </lane>
    </edge>
    <edge id=":1082_19" function="internal">
        <lane id=":1082_19_0" index="0" disallow="all" speed="1.39" length="35.74" width="0.50" shape="311.38,273.03 310.26,280.28 305.69,287.99 298.19,292.72 287.76,294.48">
            <param key="origId" value="1100_-6"/>
        </lane>
    </edge>
    <edge id=":1082_20" function="internal">
        <lane id=":1082_20_0" index="0" disallow="pedestrian tram rail_urban rail rail_electric rail_fast ship" speed="12.69" length="32.28" width="3.50" shape="309.33,273.32 308.40,279.40 304.19,286.50 297.30,290.86 287.71,292.48">
            <param key="origId" value="1100_-5"/>
        </lane>
    </edge>
    <edge id=":1082_21" function="internal">
        <lane id=":1082_21_0" index="0" disallow="pedestrian tram rail_urban rail rail_electric rail_fast ship" speed="11.72" length="25.29" width="3.50" shape="305.61,274.75 305.13,277.86 301.57,283.89 295.74,287.60 287.63,288.98">
            <param key="origId" value="1100_-4"/>
        </lane>
    </edge>
    <edge id=":1082_22" function="internal">
        <lane id=":1082_22_0" index="0" disallow="all" speed="1.39" length="18.15" width="0.50" shape="302.39,278.46 300.07,282.40 294.84,285.73 287.58,286.98">
            <param key="origId" value="1100_-3"/>
        </lane>
    </edge>
    <edge id=":1082_23" function="internal">
        <lane id=":1082_23_0" index="0" disallow="all" speed="1.39" length="15.76" width="0.63" shape="300.98,279.71 299.65,281.98 294.59,285.20 287.56,286.41">
            <param key="origId" value="1100_-2"/>
        </lane>
    </edge>
    <edge id=":1082_24" function="internal">
        <lane id=":1082_24_0" index="0" speed="10.44" length="11.54" width="2.00" shape="298.19,281.30 294.00,283.98 287.53,285.09">
            <param key="origId" value="1100_-1"/>
        </lane>
    </edge>
    <edge id=":1135_0" function="internal">
        <lane id=":1135_0_0" index="0" disallow="all" speed="1.39" length="38.50" width="2.50" shape="516.01,286.69 515.08,248.20">
            <param key="origId" value="1165_-3"/>
        </lane>
    </edge>
    <edge id=":1135_1" function="internal">
        <lane id=":1135_1_0" index="0" disallow="pedestrian tram rail_urban rail rail_electric rail_fast ship" speed="9.19" length="18.81" width="3.50" shape="519.01,286.62 518.19,281.31 516.02,277.54 512.50,275.31 507.63,274.62">
            <param key="origId" value="1158_-1"/>
        </lane>
    </edge>
    <edge id=":1135_2" function="internal">
        <lane id=":1135_2_0" index="0" disallow="pedestrian tram rail_urban rail rail_electric rail_fast ship" speed="13.89" length="38.50" width="3.50" shape="519.01,286.62 518.07,248.13">
            <param key="origId" value="1165_-2"/>
        </lane>
    </edge>
    <edge id=":1135_3" function="internal">
        <lane id=":1135_3_0" index="0" disallow="pedestrian tram rail_urban rail rail_electric rail_fast ship" speed="10.40" length="24.41" width="3.50" shape="522.51,286.53 521.43,279.71 518.59,274.87 513.97,272.01 507.57,271.13">
            <param key="origId" value="1156_-1"/>
        </lane>
    </edge>
    <edge id=":1135_4" function="internal">
        <lane id=":1135_4_0" index="0" disallow="pedestrian tram rail_urban rail rail_electric rail_fast ship" speed="13.89" length="38.50" width="3.50" shape="522.51,286.53 521.57,248.04">
            <param key="origId" value="1165_-1"/>
        </lane>
    </edge>
    <edge id=":1135_5" function="internal">
        <lane id=":1135_5_0" index="0" speed="13.89" length="38.50" width="2.00" shape="537.95,247.65 538.89,286.13">
            <param key="origId" value="1166_6"/>
        </lane>
        <lane id=":1135_5_1" index="1" disallow="all" speed="1.39" length="38.50" width="0.63" shape="536.64,247.68 537.57,286.17">
            <param key="origId" value="1166_5"/>
        </lane>
        <lane id=":1135_5_2" index="2" disallow="all" speed="1.39" length="38.50" width="2.50" shape="535.07,247.72 536.01,286.20">
            <param key="origId" value="1166_4"/>
        </lane>
        <lane id=":1135_5_3" index="3" disallow="pedestrian tram rail_urban rail rail_electric rail_fast ship" speed="13.89" length="38.50" width="3.50" shape="532.07,247.79 533.01,286.28">
            <param key="origId" value="1166_3"/>
        </lane>
        <lane id=":1135_5_4" index="4" disallow="pedestrian tram rail_urban rail rail_electric rail_fast ship" speed="13.89" length="38.50" width="3.50" shape="528.57,247.87 529.51,286.36">
            <param key="origId" value="1166_2"/>
        </lane>
    </edge>
    <edge id=":1135_10" function="internal">
        <lane id=":1135_10_0" index="0" disallow="pedestrian tram rail_urban rail rail_electric rail_fast ship" speed="8.92" length="17.93" width="3.50" shape="507.40,259.63 512.17,258.85 515.54,256.67 517.51,253.10 518.07,248.13">
            <param key="origId" value="1142_1"/>
        </lane>
        <lane id=":1135_10_1" index="1" disallow="pedestrian tram rail_urban rail rail_electric rail_fast ship" speed="10.16" length="23.61" width="3.50" shape="507.45,263.13 513.77,262.10 518.22,259.25 520.83,254.56 521.57,248.04">
            <param key="origId" value="1146_1"/>
        </lane>
    </edge>
    <edge id=":1168_0" function="internal">
        <lane id=":1168_0_0" index="0" disallow="pedestrian tram rail_urban rail rail_electric rail_fast ship" speed="9.41" length="19.89" width="3.50" shape="435.47,287.62,0.29 434.58,282.42,0.23 432.13,278.73,0.17 428.12,276.56,0.12 422.53,275.90,0.06">
            <param key="origId" value="1188_-1"/>
        </lane>
    </edge>
    <edge id=":1168_1" function="internal">
        <lane id=":1168_1_0" index="0" disallow="pedestrian tram rail_urban rail rail_electric rail_fast ship" speed="1.39" length="29.00" width="3.50" shape="451.58,278.96,0.00 422.59,279.40,0.06">
            <param key="origId" value="1174_-3"/>
        </lane>
    </edge>
    <edge id=":1168_2" function="internal">
        <lane id=":1168_2_0" index="0" disallow="pedestrian tram rail_urban rail rail_electric rail_fast ship" speed="9.39" length="5.74" width="3.50" shape="451.53,275.46,0.00 445.96,276.29,0.08 445.87,276.34,0.08">
            <param key="origId" value="1181_-1"/>
        </lane>
    </edge>
    <edge id=":1168_3" function="internal">
        <lane id=":1168_3_0" index="0" disallow="pedestrian tram rail_urban rail rail_electric rail_fast ship" speed="13.89" length="29.00" width="3.50" shape="451.53,275.46,0.00 422.53,275.90,0.06">
            <param key="origId" value="1174_-2"/>
        </lane>
        <lane id=":1168_3_1" index="1" disallow="pedestrian tram rail_urban rail rail_electric rail_fast ship" speed="13.89" length="29.00" width="3.50" shape="451.48,271.96,0.00 422.48,272.40,0.06">
            <param key="origId" value="1174_-1"/>
        </lane>
    </edge>
    <edge id=":1168_13" function="internal">
        <lane id=":1168_13_0" index="0" disallow="pedestrian tram rail_urban rail rail_electric rail_fast ship" speed="9.39" length="14.15" width="3.50" shape="445.87,276.34,0.08 442.01,278.58,0.15 439.68,282.34,0.21 438.97,287.56,0.29">
            <param key="origId" value="1181_-1"/>
        </lane>
    </edge>
    <edge id=":1168_5" function="internal">
        <lane id=":1168_5_0" index="0" speed="13.89" length="29.00" width="2.00" shape="422.22,255.01,0.06 451.22,254.58,0.00">
            <param key="origId" value="1173_8"/>
        </lane>
        <lane id=":1168_5_1" index="1" disallow="all" speed="1.39" length="29.00" width="0.63" shape="422.24,256.33,0.06 451.24,255.90,0.00">
            <param key="origId" value="1173_7"/>
        </lane>
        <lane id=":1168_5_2" index="2" disallow="all" speed="1.39" length="29.00" width="2.50" shape="422.27,257.90,0.06 451.26,257.46,0.00">
            <param key="origId" value="1173_6"/>
        </lane>