<?xml version="1.0" encoding="UTF-8"?>

<!-- generated on 2024-12-03 17:01:42 by Eclipse SUMO netconvert Version 1.20.0
<configuration xmlns:xsi="http://www.w3.org/2001/XMLSchema-instance" xsi:noNamespaceSchemaLocation="http://sumo.dlr.de/xsd/netconvertConfiguration.xsd">

    <input>
        <opendrive-files value="Town05.xodr"/>
    </input>

    <output>
        <output-file value="Town055.net.xml"/>
    </output>

    <projection>
        <proj.scale value="1.0"/>
    </projection>

    <processing>
        <offset.disable-normalization value="true"/>
    </processing>

    <junctions>
        <no-turnarounds.except-deadend value="true"/>
    </junctions>

</configuration>
-->

<net version="1.20" junctionCornerDetail="5" rectangularLaneCut="true" limitTurnSpeed="5.50" xmlns:xsi="http://www.w3.org/2001/XMLSchema-instance" xsi:noNamespaceSchemaLocation="http://sumo.dlr.de/xsd/net_file.xsd">

    <location netOffset="0.00,0.00" convBoundary="-270.79,-200.31,202.31,199.12" origBoundary="0.000000,0.000000,0.000000,0.000000" projParameter="+proj=tmerc +lat_0=0 +lon_0=0 +k=1 +x_0=0 +y_0=0 +datum=WGS84 +units=m +geoidgrids=egm96_15.gtx +vunits=m +no_defs "/>

    <type id="driving" priority="1" speed="13.89" disallow="pedestrian tram rail_urban rail rail_electric rail_fast ship container cable_car subway aircraft wheelchair scooter drone" width="3.65"/>

    <edge id=":1126_0" function="internal">
        <lane id=":1126_0_0" index="0" disallow="pedestrian tram rail_urban rail rail_electric rail_fast ship container cable_car subway aircraft wheelchair scooter drone" speed="10.10" length="19.05" width="3.50" shape="-35.59,94.95 -38.71,95.88,0.01 -41.42,98.65,0.02 -43.74,103.28,0.04 -45.66,109.75,0.06">
            <param key="signalID" value="2393"/>
        </lane>
    </edge>
    <edge id=":1126_1" function="internal">
        <lane id=":1126_1_0" index="0" disallow="pedestrian tram rail_urban rail rail_electric rail_fast ship container cable_car subway aircraft wheelchair scooter drone" speed="13.89" length="30.18" width="3.50" shape="-35.59,94.95 -65.77,94.99">
            <param key="signalID" value="2394"/>
        </lane>
        <lane id=":1126_1_1" index="1" disallow="pedestrian tram rail_urban rail rail_electric rail_fast ship container cable_car subway aircraft wheelchair scooter drone" speed="13.89" length="30.18" width="3.50" shape="-35.60,91.45 -65.78,91.49">
            <param key="signalID" value="2394"/>
        </lane>
    </edge>
    <edge id=":1126_3" function="internal">
        <lane id=":1126_3_0" index="0" disallow="pedestrian tram rail_urban rail rail_electric rail_fast ship container cable_car subway aircraft wheelchair scooter drone" speed="10.72" length="5.75" width="3.50" shape="-35.60,91.45 -41.28,90.60,0.01">
            <param key="signalID" value="2394 2396"/>
        </lane>
    </edge>
    <edge id=":1126_16" function="internal">
        <lane id=":1126_16_0" index="0" disallow="pedestrian tram rail_urban rail rail_electric rail_fast ship container cable_car subway aircraft wheelchair scooter drone" speed="10.72" length="20.59" width="3.50" shape="-41.28,90.60,0.01 -42.55,90.41,0.01 -47.50,87.26,0.03 -50.45,82.01,0.04 -51.41,74.65,0.06">
            <param key="signalID" value="2394 2396"/>
        </lane>
    </edge>
    <edge id=":1126_4" function="internal">
        <lane id=":1126_4_0" index="0" disallow="pedestrian tram rail_urban rail rail_electric rail_fast ship container cable_car subway aircraft wheelchair scooter drone" speed="8.21" length="15.00" width="3.50" shape="-44.41,74.69,0.06 -43.88,78.96,0.04 -42.23,82.01,0.03 -39.48,83.84,0.01 -35.61,84.45"/>
    </edge>
    <edge id=":1126_5" function="internal">
        <lane id=":1126_5_0" index="0" disallow="pedestrian tram rail_urban rail rail_electric rail_fast ship container cable_car subway aircraft wheelchair scooter drone" speed="13.89" length="34.76" width="3.50" shape="-44.41,74.69,0.06 -44.31,83.01,0.06 -44.20,92.32,0.06 -44.52,101.57,0.06 -45.66,109.75,0.06">
            <param key="signalID" value="2393"/>
        </lane>
        <lane id=":1126_5_1" index="1" disallow="pedestrian tram rail_urban rail rail_electric rail_fast ship container cable_car subway aircraft wheelchair scooter drone" speed="13.89" length="34.76" width="3.50" shape="-47.91,74.67,0.06 -47.80,82.87,0.06 -47.67,91.91,0.06 -47.95,100.90,0.06 -49.07,108.96,0.06">
            <param key="signalID" value="2393"/>
        </lane>
    </edge>
    <edge id=":1126_7" function="internal">
        <lane id=":1126_7_0" index="0" disallow="pedestrian tram rail_urban rail rail_electric rail_fast ship container cable_car subway aircraft wheelchair scooter drone" speed="11.08" length="5.08" width="3.50" shape="-47.91,74.67,0.06 -48.69,79.69,0.05">
            <param key="signalID" value="2396"/>
        </lane>
    </edge>
    <edge id=":1126_17" function="internal">
        <lane id=":1126_17_0" index="0" disallow="pedestrian tram rail_urban rail rail_electric rail_fast ship container cable_car subway aircraft wheelchair scooter drone" speed="11.08" length="22.86" width="3.50" shape="-48.69,79.69,0.05 -49.06,82.02,0.04 -52.42,87.27,0.03 -58.00,90.43,0.02 -65.78,91.49">
            <param key="signalID" value="2396"/>
        </lane>
    </edge>
    <edge id=":1126_8" function="internal">
        <lane id=":1126_8_0" index="0" disallow="pedestrian tram rail_urban rail rail_electric rail_fast ship container cable_car subway aircraft wheelchair scooter drone" speed="8.69" length="16.71" width="3.50" shape="-65.79,84.49 -61.05,83.87,0.02 -57.65,82.02,0.03 -55.61,78.94,0.04 -54.91,74.63,0.06">
            <param key="signalID" value="2395"/>
        </lane>
    </edge>
    <edge id=":1126_9" function="internal">
        <lane id=":1126_9_0" index="0" disallow="pedestrian tram rail_urban rail rail_electric rail_fast ship container cable_car subway aircraft wheelchair scooter drone" speed="13.89" length="30.18" width="3.50" shape="-65.79,84.49 -35.61,84.45">
            <param key="signalID" value="2396"/>
        </lane>
        <lane id=":1126_9_1" index="1" disallow="pedestrian tram rail_urban rail rail_electric rail_fast ship container cable_car subway aircraft wheelchair scooter drone" speed="13.89" length="30.18" width="3.50" shape="-65.78,87.99 -35.60,87.95">
            <param key="signalID" value="2396"/>
        </lane>
    </edge>
    <edge id=":1126_11" function="internal">
        <lane id=":1126_11_0" index="0" disallow="pedestrian tram rail_urban rail rail_electric rail_fast ship container cable_car subway aircraft wheelchair scooter drone" speed="11.06" length="6.53" width="3.50" shape="-65.78,87.99 -59.30,88.84,0.01">
            <param key="signalID" value="2396"/>
        </lane>
    </edge>
    <edge id=":1126_18" function="internal">
        <lane id=":1126_18_0" index="0" disallow="pedestrian tram rail_urban rail rail_electric rail_fast ship container cable_car subway aircraft wheelchair scooter drone" speed="11.06" length="26.29" width="3.50" shape="-59.30,88.84,0.01 -56.42,89.22,0.02 -50.58,93.03,0.03 -48.17,99.56,0.04 -49.07,108.96,0.06">
            <param key="signalID" value="2396"/>
        </lane>
    </edge>
    <edge id=":1126_12" function="internal">
        <lane id=":1126_12_0" index="0" disallow="pedestrian tram rail_urban rail rail_electric rail_fast ship container cable_car subway aircraft wheelchair scooter drone" speed="8.58" length="19.18" width="3.50" shape="-55.89,107.39,0.06 -55.47,101.96,0.04 -56.97,98.08,0.03 -60.40,95.76,0.02 -65.77,94.99">
            <param key="signalID" value="2394"/>
        </lane>
    </edge>
    <edge id=":1126_13" function="internal">
        <lane id=":1126_13_0" index="0" disallow="pedestrian tram rail_urban rail rail_electric rail_fast ship container cable_car subway aircraft wheelchair scooter drone" speed="13.89" length="33.23" width="3.50" shape="-55.89,107.39,0.06 -54.82,99.56,0.06 -54.60,91.10,0.06 -54.78,82.59,0.06 -54.91,74.63,0.06">
            <param key="signalID" value="2395"/>
        </lane>
        <lane id=":1126_13_1" index="1" disallow="pedestrian tram rail_urban rail rail_electric rail_fast ship container cable_car subway aircraft wheelchair scooter drone" speed="13.89" length="33.23" width="3.50" shape="-52.48,108.18,0.06 -51.38,100.23,0.06 -51.13,91.51,0.06 -51.29,82.73,0.06 -51.41,74.65,0.06">
            <param key="signalID" value="2395"/>
        </lane>
    </edge>
    <edge id=":1126_15" function="internal">
        <lane id=":1126_15_0" index="0" disallow="pedestrian tram rail_urban rail rail_electric rail_fast ship container cable_car subway aircraft wheelchair scooter drone" speed="12.22" length="5.12" width="3.50" shape="-52.48,108.18,0.06 -50.94,103.30,0.05">
            <param key="signalID" value="2395"/>
        </lane>
    </edge>
    <edge id=":1126_19" function="internal">
        <lane id=":1126_19_0" index="0" disallow="pedestrian tram rail_urban rail rail_electric rail_fast ship container cable_car subway aircraft wheelchair scooter drone" speed="12.22" length="23.34" width="3.50" shape="-50.94,103.30,0.05 -49.70,99.33,0.04 -45.95,93.01,0.02 -41.26,89.22,0.01 -35.60,87.95">
            <param key="signalID" value="2395"/>
        </lane>
    </edge>
    <edge id=":1292_0" function="internal">
        <lane id=":1292_0_0" index="0" disallow="pedestrian tram rail_urban rail rail_electric rail_fast ship container cable_car subway aircraft wheelchair scooter drone" speed="7.60" length="12.34" width="3.50" shape="26.67,102.35,0.00 26.10,99.07,0.00 24.59,96.73,0.00 22.15,95.33,0.00 18.77,94.87"/>
    </edge>
    <edge id=":1292_1" function="internal">
        <lane id=":1292_1_0" index="0" disallow="pedestrian tram rail_urban rail rail_electric rail_fast ship container cable_car subway aircraft wheelchair scooter drone" speed="13.89" length="25.46" width="3.50" shape="26.67,102.35,0.00 25.99,76.90,0.00">
            <param key="signalID" value="2400"/>
        </lane>
        <lane id=":1292_1_1" index="1" disallow="pedestrian tram rail_urban rail rail_electric rail_fast ship container cable_car subway aircraft wheelchair scooter drone" speed="13.89" length="25.46" width="3.50" shape="30.17,102.26,0.00 29.49,76.81,0.00">
            <param key="signalID" value="2400"/>
        </lane>
    </edge>
    <edge id=":1292_3" function="internal">
        <lane id=":1292_3_0" index="0" disallow="pedestrian tram rail_urban rail rail_electric rail_fast ship container cable_car subway aircraft wheelchair scooter drone" speed="10.06" length="6.04" width="3.50" shape="30.17,102.26,0.00 30.87,96.26,0.00">
            <param key="signalID" value="2400"/>
        </lane>
    </edge>
    <edge id=":1292_16" function="internal">
        <lane id=":1292_16_0" index="0" disallow="pedestrian tram rail_urban rail rail_electric rail_fast ship container cable_car subway aircraft wheelchair scooter drone" speed="10.06" length="17.82" width="3.50" shape="30.87,96.26,0.00 30.93,95.71,0.00 33.62,91.10,0.00 38.23,88.40,0.00 44.77,87.63">
            <param key="signalID" value="2400"/>
        </lane>
    </edge>
    <edge id=":1292_4" function="internal">
        <lane id=":1292_4_0" index="0" disallow="pedestrian tram rail_urban rail rail_electric rail_fast ship container cable_car subway aircraft wheelchair scooter drone" speed="7.34" length="12.14" width="3.50" shape="44.59,94.63 41.27,95.02,0.00 38.92,96.39,0.00 37.55,98.74,0.00 37.17,102.07,0.00">
            <param key="signalID" value="2398"/>
        </lane>
    </edge>
    <edge id=":1292_5" function="internal">
        <lane id=":1292_5_0" index="0" disallow="pedestrian tram rail_urban rail rail_electric rail_fast ship container cable_car subway aircraft wheelchair scooter drone" speed="13.89" length="25.87" width="3.50" shape="44.59,94.63 18.77,94.87"/>
        <lane id=":1292_5_1" index="1" disallow="pedestrian tram rail_urban rail rail_electric rail_fast ship container cable_car subway aircraft wheelchair scooter drone" speed="13.89" length="25.87" width="3.50" shape="44.68,91.13 18.76,91.37">
            <param key="signalID" value="2399 2399"/>
        </lane>
    </edge>
    <edge id=":1292_7" function="internal">
        <lane id=":1292_7_0" index="0" disallow="pedestrian tram rail_urban rail rail_electric rail_fast ship container cable_car subway aircraft wheelchair scooter drone" speed="10.38" length="5.18" width="3.50" shape="44.68,91.13 39.57,90.31,0.00">
            <param key="signalID" value="2399 2397"/>
        </lane>
    </edge>
    <edge id=":1292_17" function="internal">
        <lane id=":1292_17_0" index="0" disallow="pedestrian tram rail_urban rail rail_electric rail_fast ship container cable_car subway aircraft wheelchair scooter drone" speed="10.38" length="18.36" width="3.50" shape="39.57,90.31,0.00 38.17,90.09,0.00 33.47,87.36,0.00 30.58,82.93,0.00 29.49,76.81,0.00">
            <param key="signalID" value="2399 2397"/>
        </lane>
    </edge>
    <edge id=":1292_8" function="internal">
        <lane id=":1292_8_0" index="0" disallow="pedestrian tram rail_urban rail rail_electric rail_fast ship container cable_car subway aircraft wheelchair scooter drone" speed="7.76" length="12.67" width="3.50" shape="36.49,76.62,0.00 37.08,79.83,0.00 38.68,82.15,0.00 41.27,83.58,0.00 44.86,84.13"/>
    </edge>
    <edge id=":1292_9" function="internal">
        <lane id=":1292_9_0" index="0" disallow="pedestrian tram rail_urban rail rail_electric rail_fast ship container cable_car subway aircraft wheelchair scooter drone" speed="13.89" length="25.46" width="3.50" shape="36.49,76.62,0.00 37.17,102.07,0.00">
            <param key="signalID" value="2398"/>
        </lane>
        <lane id=":1292_9_1" index="1" disallow="pedestrian tram rail_urban rail rail_electric rail_fast ship container cable_car subway aircraft wheelchair scooter drone" speed="13.89" length="25.46" width="3.50" shape="32.99,76.71,0.00 33.67,102.16,0.00">
            <param key="signalID" value="2398"/>
        </lane>
    </edge>
    <edge id=":1292_11" function="internal">
        <lane id=":1292_11_0" index="0" disallow="pedestrian tram rail_urban rail rail_electric rail_fast ship container cable_car subway aircraft wheelchair scooter drone" speed="10.07" length="6.06" width="3.50" shape="32.99,76.71,0.00 32.29,82.74,0.00">
            <param key="signalID" value="2397"/>
        </lane>
    </edge>
    <edge id=":1292_18" function="internal">
        <lane id=":1292_18_0" index="0" disallow="pedestrian tram rail_urban rail rail_electric rail_fast ship container cable_car subway aircraft wheelchair scooter drone" speed="10.07" length="17.36" width="3.50" shape="32.29,82.74,0.00 32.24,83.12,0.00 29.63,87.69,0.00 25.13,90.44,0.00 18.76,91.37">
            <param key="signalID" value="2397"/>
        </lane>
    </edge>
    <edge id=":1292_12" function="internal">
        <lane id=":1292_12_0" index="0" disallow="pedestrian tram rail_urban rail rail_electric rail_fast ship container cable_car subway aircraft wheelchair scooter drone" speed="7.35" length="11.92" width="3.50" shape="18.75,84.37 21.99,83.89,0.00 24.28,82.49,0.00 25.61,80.16,0.00 25.99,76.90,0.00">
            <param key="signalID" value="2400"/>
        </lane>
    </edge>
    <edge id=":1292_13" function="internal">
        <lane id=":1292_13_0" index="0" disallow="pedestrian tram rail_urban rail rail_electric rail_fast ship container cable_car subway aircraft wheelchair scooter drone" speed="13.89" length="26.06" width="3.50" shape="18.75,84.37 44.86,84.13"/>
        <lane id=":1292_13_1" index="1" disallow="pedestrian tram rail_urban rail rail_electric rail_fast ship container cable_car subway aircraft wheelchair scooter drone" speed="13.89" length="26.06" width="3.50" shape="18.76,87.87 44.77,87.63">
            <param key="signalID" value="2397 2397"/>
        </lane>
    </edge>
    <edge id=":1292_15" function="internal">
        <lane id=":1292_15_0" index="0" disallow="pedestrian tram rail_urban rail rail_electric rail_fast ship container cable_car subway aircraft wheelchair scooter drone" speed="10.26" length="5.87" width="3.50" shape="18.76,87.87 24.57,88.67,0.00">
            <param key="signalID" value="2399 2397"/>
        </lane>
    </edge>
    <edge id=":1292_19" function="internal">
        <lane id=":1292_19_0" index="0" disallow="pedestrian tram rail_urban rail rail_electric rail_fast ship container cable_car subway aircraft wheelchair scooter drone" speed="10.26" length="17.56" width="3.50" shape="24.57,88.67,0.00 25.14,88.75,0.00 29.75,91.43,0.00 32.59,95.90,0.00 33.67,102.16,0.00">
            <param key="signalID" value="2399 2397"/>
        </lane>
    </edge>
    <edge id=":1427_0" function="internal">
        <lane id=":1427_0_0" index="0" disallow="pedestrian tram rail_urban rail rail_electric rail_fast ship container cable_car subway aircraft wheelchair scooter drone" speed="7.47" length="12.09" width="3.50" shape="-36.39,4.36 -39.72,4.82,0.02 -42.10,6.19,0.03 -43.54,8.49,0.04 -44.03,11.72,0.06">
            <param key="signalID" value="2401"/>
        </lane>
    </edge>
    <edge id=":1427_1" function="internal">
        <lane id=":1427_1_0" index="0" disallow="pedestrian tram rail_urban rail rail_electric rail_fast ship container cable_car subway aircraft wheelchair scooter drone" speed="13.89" length="25.37" width="3.50" shape="-36.39,4.36 -61.76,4.30">
            <param key="signalID" value="2402"/>
        </lane>
        <lane id=":1427_1_1" index="1" disallow="pedestrian tram rail_urban rail rail_electric rail_fast ship container cable_car subway aircraft wheelchair scooter drone" speed="13.89" length="25.37" width="3.50" shape="-36.38,0.86 -61.75,0.80">
            <param key="signalID" value="2402"/>
        </lane>
    </edge>
    <edge id=":1427_3" function="internal">
        <lane id=":1427_3_0" index="0" disallow="pedestrian tram rail_urban rail rail_electric rail_fast ship container cable_car subway aircraft wheelchair scooter drone" speed="10.07" length="6.06" width="3.50" shape="-36.38,0.86 -42.38,-0.01,0.01">
            <param key="signalID" value="2402"/>
        </lane>
    </edge>
    <edge id=":1427_16" function="internal">
        <lane id=":1427_16_0" index="0" disallow="pedestrian tram rail_urban rail rail_electric rail_fast ship container cable_car subway aircraft wheelchair scooter drone" speed="10.07" length="17.20" width="3.50" shape="-42.38,-0.01,0.01 -42.70,-0.06,0.02 -47.18,-2.79,0.03 -49.81,-7.32,0.04 -50.59,-13.66,0.06">
            <param key="signalID" value="2402"/>
        </lane>
    </edge>
    <edge id=":1427_4" function="internal">
        <lane id=":1427_4_0" index="0" disallow="pedestrian tram rail_urban rail rail_electric rail_fast ship container cable_car subway aircraft wheelchair scooter drone" speed="7.34" length="11.83" width="3.50" shape="-43.60,-13.53,0.06 -43.20,-10.30,0.04 -41.86,-7.99,0.03 -39.58,-6.61,0.02 -36.37,-6.14">
            <param key="signalID" value="2404"/>
        </lane>
    </edge>
    <edge id=":1427_5" function="internal">
        <lane id=":1427_5_0" index="0" disallow="pedestrian tram rail_urban rail rail_electric rail_fast ship container cable_car subway aircraft wheelchair scooter drone" speed="13.89" length="25.27" width="3.50" shape="-43.60,-13.53,0.06 -44.03,11.72,0.06">
            <param key="signalID" value="2401"/>
        </lane>
        <lane id=":1427_5_1" index="1" disallow="pedestrian tram rail_urban rail rail_electric rail_fast ship container cable_car subway aircraft wheelchair scooter drone" speed="13.89" length="25.27" width="3.50" shape="-47.10,-13.59,0.06 -47.53,11.70,0.06">
            <param key="signalID" value="2401"/>
        </lane>
    </edge>
    <edge id=":1427_7" function="internal">
        <lane id=":1427_7_0" index="0" disallow="pedestrian tram rail_urban rail rail_electric rail_fast ship container cable_car subway aircraft wheelchair scooter drone" speed="10.21" length="6.04" width="3.50" shape="-47.10,-13.59,0.06 -48.06,-7.63,0.04">
            <param key="signalID" value="2404"/>
        </lane>
    </edge>
    <edge id=":1427_17" function="internal">
        <lane id=":1427_17_0" index="0" disallow="pedestrian tram rail_urban rail rail_electric rail_fast ship container cable_car subway aircraft wheelchair scooter drone" speed="10.21" length="17.30" width="3.50" shape="-48.06,-7.63,0.04 -48.11,-7.28,0.04 -50.90,-2.78,0.03 -55.44,-0.09,0.02 -61.75,0.80">
            <param key="signalID" value="2404"/>
        </lane>
    </edge>
    <edge id=":1427_8" function="internal">
        <lane id=":1427_8_0" index="0" disallow="pedestrian tram rail_urban rail rail_electric rail_fast ship container cable_car subway aircraft wheelchair scooter drone" speed="7.53" length="12.19" width="3.50" shape="-61.74,-6.20 -58.45,-6.66,0.02 -56.08,-8.07,0.03 -54.63,-10.43,0.04 -54.09,-13.73,0.06">
            <param key="signalID" value="2403"/>
        </lane>
    </edge>
    <edge id=":1427_9" function="internal">
        <lane id=":1427_9_0" index="0" disallow="pedestrian tram rail_urban rail rail_electric rail_fast ship container cable_car subway aircraft wheelchair scooter drone" speed="13.89" length="25.37" width="3.50" shape="-61.74,-6.20 -36.37,-6.14">
            <param key="signalID" value="2404"/>
        </lane>
        <lane id=":1427_9_1" index="1" disallow="pedestrian tram rail_urban rail rail_electric rail_fast ship container cable_car subway aircraft wheelchair scooter drone" speed="13.89" length="25.37" width="3.50" shape="-61.75,-2.70 -36.38,-2.64">
            <param key="signalID" value="2404"/>
        </lane>
    </edge>
    <edge id=":1427_11" function="internal">
        <lane id=":1427_11_0" index="0" disallow="pedestrian tram rail_urban rail rail_electric rail_fast ship container cable_car subway aircraft wheelchair scooter drone" speed="10.08" length="6.04" width="3.50" shape="-61.75,-2.70 -55.77,-1.83,0.01">
            <param key="signalID" value="2404"/>
        </lane>
    </edge>
    <edge id=":1427_18" function="internal">
        <lane id=":1427_18_0" index="0" disallow="pedestrian tram rail_urban rail rail_electric rail_fast ship container cable_car subway aircraft wheelchair scooter drone" speed="10.08" length="17.05" width="3.50" shape="-55.77,-1.83,0.01 -55.50,-1.79,0.02 -51.04,0.92,0.03 -48.39,5.41,0.04 -47.53,11.70,0.06">
            <param key="signalID" value="2404"/>
        </lane>
    </edge>
    <edge id=":1427_12" function="internal">
        <lane id=":1427_12_0" index="0" disallow="pedestrian tram rail_urban rail rail_electric rail_fast ship container cable_car subway aircraft wheelchair scooter drone" speed="7.36" length="11.77" width="3.50" shape="-54.53,11.66,0.06 -54.97,8.45,0.04 -56.32,6.15,0.03 -58.58,4.77,0.02 -61.76,4.30">
            <param key="signalID" value="2402"/>
        </lane>
    </edge>
    <edge id=":1427_13" function="internal">
        <lane id=":1427_13_0" index="0" disallow="pedestrian tram rail_urban rail rail_electric rail_fast ship container cable_car subway aircraft wheelchair scooter drone" speed="13.89" length="25.36" width="3.50" shape="-54.53,11.66,0.06 -54.09,-13.73,0.06">
            <param key="signalID" value="2403"/>
        </lane>
        <lane id=":1427_13_1" index="1" disallow="pedestrian tram rail_urban rail rail_electric rail_fast ship container cable_car subway aircraft wheelchair scooter drone" speed="13.89" length="25.36" width="3.50" shape="-51.03,11.68,0.06 -50.59,-13.66,0.06">
            <param key="signalID" value="2403"/>
        </lane>
    </edge>
    <edge id=":1427_15" function="internal">
        <lane id=":1427_15_0" index="0" disallow="pedestrian tram rail_urban rail rail_electric rail_fast ship container cable_car subway aircraft wheelchair scooter drone" speed="10.16" length="6.35" width="3.50" shape="-51.03,11.68,0.06 -50.09,5.40,0.04">
            <param key="signalID" value="2403"/>
        </lane>
    </edge>
    <edge id=":1427_19" function="internal">
        <lane id=":1427_19_0" index="0" disallow="pedestrian tram rail_urban rail rail_electric rail_fast ship container cable_car subway aircraft wheelchair scooter drone" speed="10.16" length="17.00" width="3.50" shape="-50.09,5.40,0.04 -47.33,0.92,0.03 -42.76,-1.76,0.02 -36.38,-2.64">
            <param key="signalID" value="2403"/>
        </lane>
    </edge>
    <edge id=":15.14_0" function="internal">
        <lane id=":15.14_0_0" index="0" disallow="pedestrian tram rail_urban rail rail_electric rail_fast ship container cable_car subway aircraft wheelchair scooter drone" speed="13.89" length="0.10" width="3.50" shape="26.73,104.59,0.00 26.73,104.59,0.00"/>
        <lane id=":15.14_0_1" index="1" disallow="pedestrian tram rail_urban rail rail_electric rail_fast ship container cable_car subway aircraft wheelchair scooter drone" speed="13.89" length="0.10" width="3.50" shape="30.23,104.49,0.00 30.23,104.49,0.00"/>
    </edge>
    <edge id=":15.14_2" function="internal">
        <lane id=":15.14_2_0" index="0" disallow="pedestrian tram rail_urban rail rail_electric rail_fast ship container cable_car subway aircraft wheelchair scooter drone" speed="13.89" length="0.10" width="3.50" shape="37.23,104.31,0.00 37.23,104.31,0.00"/>
        <lane id=":15.14_2_1" index="1" disallow="pedestrian tram rail_urban rail rail_electric rail_fast ship container cable_car subway aircraft wheelchair scooter drone" speed="13.89" length="0.10" width="3.50" shape="33.73,104.40,0.00 33.73,104.40,0.00"/>
    </edge>
    <edge id=":1574_0" function="internal">
        <lane id=":1574_0_0" index="0" disallow="pedestrian tram rail_urban rail rail_electric rail_fast ship container cable_car subway aircraft wheelchair scooter drone" speed="7.55" length="12.35" width="3.50" shape="24.40,12.59,0.00 23.93,9.05,0.00 22.57,6.53,0.00 20.32,5.01,0.00 17.17,4.49"/>
    </edge>
    <edge id=":1574_1" function="internal">
        <lane id=":1574_1_0" index="0" disallow="pedestrian tram rail_urban rail rail_electric rail_fast ship container cable_car subway aircraft wheelchair scooter drone" speed="13.89" length="25.77" width="3.50" shape="24.40,12.59,0.00 24.59,-13.20,0.00">
            <param key="signalID" value="2408"/>
        </lane>
        <lane id=":1574_1_1" index="1" disallow="pedestrian tram rail_urban rail rail_electric rail_fast ship container cable_car subway aircraft wheelchair scooter drone" speed="13.89" length="25.77" width="3.50" shape="27.90,12.57,0.00 28.09,-13.18,0.00">
            <param key="signalID" value="2408"/>
        </lane>
    </edge>
    <edge id=":1574_3" function="internal">
        <lane id=":1574_3_0" index="0" disallow="pedestrian tram rail_urban rail rail_electric rail_fast ship container cable_car subway aircraft wheelchair scooter drone" speed="10.12" length="6.30" width="3.50" shape="27.90,12.57,0.00 28.78,6.33,0.00">
            <param key="signalID" value="2406 2408"/>
        </lane>
    </edge>
    <edge id=":1574_16" function="internal">
        <lane id=":1574_16_0" index="0" disallow="pedestrian tram rail_urban rail rail_electric rail_fast ship container cable_car subway aircraft wheelchair scooter drone" speed="10.12" length="16.93" width="3.50" shape="28.78,6.33,0.00 31.48,1.86,0.00 36.02,-0.83,0.00 42.38,-1.75">
            <param key="signalID" value="2406 2408"/>
        </lane>
    </edge>
    <edge id=":1574_4" function="internal">
        <lane id=":1574_4_0" index="0" disallow="pedestrian tram rail_urban rail rail_electric rail_fast ship container cable_car subway aircraft wheelchair scooter drone" speed="7.41" length="11.93" width="3.50" shape="42.41,5.25 39.11,5.72,0.00 36.76,7.09,0.00 35.36,9.36,0.00 34.90,12.54,0.00"/>
    </edge>
    <edge id=":1574_5" function="internal">
        <lane id=":1574_5_0" index="0" disallow="pedestrian tram rail_urban rail rail_electric rail_fast ship container cable_car subway aircraft wheelchair scooter drone" speed="13.89" length="25.25" width="3.50" shape="42.41,5.25 17.17,4.49"/>
        <lane id=":1574_5_1" index="1" disallow="pedestrian tram rail_urban rail rail_electric rail_fast ship container cable_car subway aircraft wheelchair scooter drone" speed="13.89" length="25.25" width="3.50" shape="42.40,1.75 17.18,0.99">
            <param key="signalID" value="2407 2407"/>
        </lane>
    </edge>
    <edge id=":1574_7" function="internal">
        <lane id=":1574_7_0" index="0" disallow="pedestrian tram rail_urban rail rail_electric rail_fast ship container cable_car subway aircraft wheelchair scooter drone" speed="10.16" length="6.48" width="3.50" shape="42.40,1.75 36.10,0.84,0.00 36.00,0.78,0.00">
            <param key="signalID" value="2407"/>
        </lane>
    </edge>
    <edge id=":1574_17" function="internal">
        <lane id=":1574_17_0" index="0" disallow="pedestrian tram rail_urban rail rail_electric rail_fast ship container cable_car subway aircraft wheelchair scooter drone" speed="10.16" length="17.15" width="3.50" shape="36.00,0.78,0.00 31.62,-1.95,0.00 28.95,-6.62,0.00 28.09,-13.18,0.00">
            <param key="signalID" value="2407"/>
        </lane>
    </edge>
    <edge id=":1574_8" function="internal">
        <lane id=":1574_8_0" index="0" disallow="pedestrian tram rail_urban rail rail_electric rail_fast ship container cable_car subway aircraft wheelchair scooter drone" speed="7.48" length="12.26" width="3.50" shape="35.09,-13.13,0.00 35.53,-9.67,0.00 36.88,-7.20,0.00 39.16,-5.73,0.00 42.37,-5.25">
            <param key="signalID" value="2405"/>
        </lane>
    </edge>
    <edge id=":1574_9" function="internal">
        <lane id=":1574_9_0" index="0" disallow="pedestrian tram rail_urban rail rail_electric rail_fast ship container cable_car subway aircraft wheelchair scooter drone" speed="13.89" length="25.69" width="3.50" shape="35.09,-13.13,0.00 34.90,12.54,0.00">